<?xml version="1.0" encoding="UTF-8"?>

<!-- generated on 2024-01-10 13:59:30 by Eclipse SUMO netedit Version v1_19_0+0143-4ff360ee235
<configuration xmlns:xsi="http://www.w3.org/2001/XMLSchema-instance" xsi:noNamespaceSchemaLocation="http://sumo.dlr.de/xsd/neteditConfiguration.xsd">

    <input>
        <sumo-net-file value="/Users/yara/Documents/UTWENTE/Academic Research skills/SpyingOnCyclists/sumoFiles/mediumLarge/leftbottom.net.xml"/>
    </input>

    <output>
        <output-file value="/Users/yara/Documents/UTWENTE/Academic Research skills/SpyingOnCyclists/sumoFiles/mediumLarge/leftbottom.net.xml"/>
    </output>

    <processing>
        <geometry.min-radius.fix.railways value="false"/>
        <geometry.max-grade.fix value="false"/>
        <offset.disable-normalization value="true"/>
        <lefthand value="0"/>
    </processing>

    <junctions>
        <no-turnarounds value="true"/>
        <junctions.corner-detail value="5"/>
        <junctions.limit-turn-speed value="5.50"/>
        <rectangular-lane-cut value="0"/>
    </junctions>

    <pedestrian>
        <walkingareas value="0"/>
    </pedestrian>

</configuration>
-->

<net version="1.16" junctionCornerDetail="5" limitTurnSpeed="5.50" xmlns:xsi="http://www.w3.org/2001/XMLSchema-instance" xsi:noNamespaceSchemaLocation="http://sumo.dlr.de/xsd/net_file.xsd">

    <location netOffset="1960.00,1680.00" convBoundary="640.00,100.00,1600.00,740.00" origBoundary="-1960.00,-1680.00,2360.00,1400.00" projParameter="!"/>

    <edge id=":103671_0" function="internal">
        <lane id=":103671_0_0" index="0" speed="6.51" length="9.03" shape="1338.40,667.20 1338.05,664.75 1337.00,663.00 1335.25,661.95 1332.80,661.60"/>
    </edge>
    <edge id=":103671_1" function="internal">
        <lane id=":103671_1_0" index="0" speed="13.89" length="14.40" shape="1338.40,667.20 1338.40,652.80"/>
    </edge>
    <edge id=":103671_2" function="internal">
        <lane id=":103671_2_0" index="0" speed="8.00" length="4.07" shape="1338.40,667.20 1338.95,663.35 1339.04,663.20"/>
    </edge>
    <edge id=":103671_3" function="internal">
        <lane id=":103671_3_0" index="0" speed="3.65" length="1.44" shape="1338.40,667.20 1339.20,666.00"/>
    </edge>
    <edge id=":103671_16" function="internal">
        <lane id=":103671_16_0" index="0" speed="8.00" length="10.13" shape="1339.04,663.20 1340.60,660.60 1343.35,658.95 1347.20,658.40"/>
    </edge>
    <edge id=":103671_17" function="internal">
        <lane id=":103671_17_0" index="0" speed="3.65" length="3.23" shape="1339.20,666.00 1340.00,665.60 1340.80,666.00 1341.60,667.20"/>
    </edge>
    <edge id=":103671_4" function="internal">
        <lane id=":103671_4_0" index="0" speed="6.51" length="9.03" shape="1347.20,661.60 1344.75,661.95 1343.00,663.00 1341.95,664.75 1341.60,667.20"/>
    </edge>
    <edge id=":103671_5" function="internal">
        <lane id=":103671_5_0" index="0" speed="13.89" length="14.40" shape="1347.20,661.60 1332.80,661.60"/>
    </edge>
    <edge id=":103671_6" function="internal">
        <lane id=":103671_6_0" index="0" speed="8.00" length="14.19" shape="1347.20,661.60 1343.35,661.05 1340.60,659.40 1338.95,656.65 1338.40,652.80"/>
    </edge>
    <edge id=":103671_7" function="internal">
        <lane id=":103671_7_0" index="0" speed="3.65" length="4.67" shape="1347.20,661.60 1346.00,660.80 1345.60,660.00 1346.00,659.20 1347.20,658.40"/>
    </edge>
    <edge id=":103671_8" function="internal">
        <lane id=":103671_8_0" index="0" speed="6.51" length="9.03" shape="1341.60,652.80 1341.95,655.25 1343.00,657.00 1344.75,658.05 1347.20,658.40"/>
    </edge>
    <edge id=":103671_9" function="internal">
        <lane id=":103671_9_0" index="0" speed="13.89" length="14.40" shape="1341.60,652.80 1341.60,667.20"/>
    </edge>
    <edge id=":103671_10" function="internal">
        <lane id=":103671_10_0" index="0" speed="8.00" length="4.07" shape="1341.60,652.80 1341.05,656.65 1340.96,656.80"/>
    </edge>
    <edge id=":103671_11" function="internal">
        <lane id=":103671_11_0" index="0" speed="3.65" length="1.44" shape="1341.60,652.80 1340.80,654.00"/>
    </edge>
    <edge id=":103671_18" function="internal">
        <lane id=":103671_18_0" index="0" speed="8.00" length="10.13" shape="1340.96,656.80 1339.40,659.40 1336.65,661.05 1332.80,661.60"/>
    </edge>
    <edge id=":103671_19" function="internal">
        <lane id=":103671_19_0" index="0" speed="3.65" length="3.23" shape="1340.80,654.00 1340.00,654.40 1339.20,654.00 1338.40,652.80"/>
    </edge>
    <edge id=":103671_12" function="internal">
        <lane id=":103671_12_0" index="0" speed="6.51" length="9.03" shape="1332.80,658.40 1335.25,658.05 1337.00,657.00 1338.05,655.25 1338.40,652.80"/>
    </edge>
    <edge id=":103671_13" function="internal">
        <lane id=":103671_13_0" index="0" speed="13.89" length="14.40" shape="1332.80,658.40 1347.20,658.40"/>
    </edge>
    <edge id=":103671_14" function="internal">
        <lane id=":103671_14_0" index="0" speed="8.00" length="14.19" shape="1332.80,658.40 1336.65,658.95 1339.40,660.60 1341.05,663.35 1341.60,667.20"/>
    </edge>
    <edge id=":103671_15" function="internal">
        <lane id=":103671_15_0" index="0" speed="3.65" length="4.67" shape="1332.80,658.40 1334.00,659.20 1334.40,660.00 1334.00,660.80 1332.80,661.60"/>
    </edge>
    <edge id=":107170_0" function="internal">
        <lane id=":107170_0_0" index="0" speed="3.65" length="4.67" shape="1421.13,678.87 1421.41,680.28 1421.13,681.13 1420.28,681.41 1418.87,681.13"/>
    </edge>
    <edge id=":114280_0" function="internal">
        <lane id=":114280_0_0" index="0" speed="6.51" length="9.03" shape="1318.40,667.20 1318.05,664.75 1317.00,663.00 1315.25,661.95 1312.80,661.60"/>
    </edge>
    <edge id=":114280_1" function="internal">
        <lane id=":114280_1_0" index="0" speed="13.89" length="14.40" shape="1318.40,667.20 1318.40,652.80"/>
    </edge>
    <edge id=":114280_2" function="internal">
        <lane id=":114280_2_0" index="0" speed="8.00" length="4.07" shape="1318.40,667.20 1318.95,663.35 1319.04,663.20"/>
    </edge>
    <edge id=":114280_3" function="internal">
        <lane id=":114280_3_0" index="0" speed="3.65" length="1.44" shape="1318.40,667.20 1319.20,666.00"/>
    </edge>
    <edge id=":114280_16" function="internal">
        <lane id=":114280_16_0" index="0" speed="8.00" length="10.13" shape="1319.04,663.20 1320.60,660.60 1323.35,658.95 1327.20,658.40"/>
    </edge>
    <edge id=":114280_17" function="internal">
        <lane id=":114280_17_0" index="0" speed="3.65" length="3.23" shape="1319.20,666.00 1320.00,665.60 1320.80,666.00 1321.60,667.20"/>
    </edge>
    <edge id=":114280_4" function="internal">
        <lane id=":114280_4_0" index="0" speed="6.51" length="9.03" shape="1327.20,661.60 1324.75,661.95 1323.00,663.00 1321.95,664.75 1321.60,667.20"/>
    </edge>
    <edge id=":114280_5" function="internal">
        <lane id=":114280_5_0" index="0" speed="13.89" length="14.40" shape="1327.20,661.60 1312.80,661.60"/>
    </edge>
    <edge id=":114280_6" function="internal">
        <lane id=":114280_6_0" index="0" speed="8.00" length="14.19" shape="1327.20,661.60 1323.35,661.05 1320.60,659.40 1318.95,656.65 1318.40,652.80"/>
    </edge>
    <edge id=":114280_7" function="internal">
        <lane id=":114280_7_0" index="0" speed="3.65" length="4.67" shape="1327.20,661.60 1326.00,660.80 1325.60,660.00 1326.00,659.20 1327.20,658.40"/>
    </edge>
    <edge id=":114280_8" function="internal">
        <lane id=":114280_8_0" index="0" speed="6.51" length="9.03" shape="1321.60,652.80 1321.95,655.25 1323.00,657.00 1324.75,658.05 1327.20,658.40"/>
    </edge>
    <edge id=":114280_9" function="internal">
        <lane id=":114280_9_0" index="0" speed="13.89" length="14.40" shape="1321.60,652.80 1321.60,667.20"/>
    </edge>
    <edge id=":114280_10" function="internal">
        <lane id=":114280_10_0" index="0" speed="8.00" length="4.07" shape="1321.60,652.80 1321.05,656.65 1320.96,656.80"/>
    </edge>
    <edge id=":114280_11" function="internal">
        <lane id=":114280_11_0" index="0" speed="3.65" length="1.44" shape="1321.60,652.80 1320.80,654.00"/>
    </edge>
    <edge id=":114280_18" function="internal">
        <lane id=":114280_18_0" index="0" speed="8.00" length="10.13" shape="1320.96,656.80 1319.40,659.40 1316.65,661.05 1312.80,661.60"/>
    </edge>
    <edge id=":114280_19" function="internal">
        <lane id=":114280_19_0" index="0" speed="3.65" length="3.23" shape="1320.80,654.00 1320.00,654.40 1319.20,654.00 1318.40,652.80"/>
    </edge>
    <edge id=":114280_12" function="internal">
        <lane id=":114280_12_0" index="0" speed="6.51" length="9.03" shape="1312.80,658.40 1315.25,658.05 1317.00,657.00 1318.05,655.25 1318.40,652.80"/>
    </edge>
    <edge id=":114280_13" function="internal">
        <lane id=":114280_13_0" index="0" speed="13.89" length="14.40" shape="1312.80,658.40 1327.20,658.40"/>
    </edge>
    <edge id=":114280_14" function="internal">
        <lane id=":114280_14_0" index="0" speed="8.00" length="14.19" shape="1312.80,658.40 1316.65,658.95 1319.40,660.60 1321.05,663.35 1321.60,667.20"/>
    </edge>
    <edge id=":114280_15" function="internal">
        <lane id=":114280_15_0" index="0" speed="3.65" length="4.67" shape="1312.80,658.40 1314.00,659.20 1314.40,660.00 1314.00,660.80 1312.80,661.60"/>
    </edge>
    <edge id=":115116_0" function="internal">
        <lane id=":115116_0_0" index="0" speed="6.49" length="14.35" shape="1321.60,712.27 1321.09,716.83 1319.55,718.92 1316.99,718.53 1313.41,715.67"/>
    </edge>
    <edge id=":115116_1" function="internal">
        <lane id=":115116_1_0" index="0" speed="3.65" length="1.44" shape="1321.60,712.27 1320.80,713.47"/>
    </edge>
    <edge id=":115116_4" function="internal">
        <lane id=":115116_4_0" index="0" speed="3.65" length="3.23" shape="1320.80,713.47 1320.00,713.87 1319.20,713.47 1318.40,712.27"/>
    </edge>
    <edge id=":115116_2" function="internal">
        <lane id=":115116_2_0" index="0" speed="4.12" length="4.78" shape="1315.67,713.41 1316.86,714.36 1317.72,714.49 1318.23,713.79 1318.40,712.27"/>
    </edge>
    <edge id=":115116_3" function="internal">
        <lane id=":115116_3_0" index="0" speed="3.65" length="1.33" shape="1315.67,713.41 1315.93,714.71"/>
    </edge>
    <edge id=":115116_5" function="internal">
        <lane id=":115116_5_0" index="0" speed="3.65" length="3.35" shape="1315.93,714.71 1315.95,714.82 1315.67,715.67 1314.82,715.95 1313.41,715.67"/>
    </edge>
    <edge id=":115118_0" function="internal">
        <lane id=":115118_0_0" index="0" speed="12.73" length="15.02" shape="1267.16,669.42 1263.45,666.00 1260.13,663.56 1257.20,662.09 1254.67,661.60"/>
    </edge>
    <edge id=":115118_1" function="internal">
        <lane id=":115118_1_0" index="0" speed="9.73" length="21.49" shape="1267.16,669.42 1263.63,664.71 1262.45,660.00 1263.63,655.29 1267.16,650.58"/>
    </edge>
    <edge id=":115118_2" function="internal">
        <lane id=":115118_2_0" index="0" speed="7.42" length="19.31" shape="1267.16,669.42 1263.31,664.60 1262.79,661.16 1265.59,659.09 1271.73,658.40"/>
    </edge>
    <edge id=":115118_3" function="internal">
        <lane id=":115118_3_0" index="0" speed="3.65" length="4.67" shape="1267.16,669.42 1266.88,668.01 1267.16,667.16 1268.01,666.88 1269.42,667.16"/>
    </edge>
    <edge id=":115118_4" function="internal">
        <lane id=":115118_4_0" index="0" speed="5.47" length="9.74" shape="1271.73,661.60 1268.63,661.95 1267.22,662.99 1267.48,664.73 1269.42,667.16"/>
    </edge>
    <edge id=":115118_5" function="internal">
        <lane id=":115118_5_0" index="0" speed="13.89" length="17.05" shape="1271.73,661.60 1254.67,661.60"/>
    </edge>
    <edge id=":115118_6" function="internal">
        <lane id=":115118_6_0" index="0" speed="7.42" length="6.00" shape="1271.73,661.60 1265.76,660.93"/>
    </edge>
    <edge id=":115118_7" function="internal">
        <lane id=":115118_7_0" index="0" speed="3.65" length="1.44" shape="1271.73,661.60 1270.53,660.80"/>
    </edge>
    <edge id=":115118_16" function="internal">
        <lane id=":115118_16_0" index="0" speed="7.42" length="13.30" shape="1265.76,660.93 1265.59,660.91 1262.79,658.84 1263.31,655.40 1267.16,650.58"/>
    </edge>
    <edge id=":115118_17" function="internal">
        <lane id=":115118_17_0" index="0" speed="3.65" length="3.23" shape="1270.53,660.80 1270.13,660.00 1270.53,659.20 1271.73,658.40"/>
    </edge>
    <edge id=":115118_8" function="internal">
        <lane id=":115118_8_0" index="0" speed="5.47" length="9.74" shape="1269.42,652.84 1267.48,655.27 1267.22,657.01 1268.63,658.05 1271.73,658.40"/>
    </edge>
    <edge id=":115118_9" function="internal">
        <lane id=":115118_9_0" index="0" speed="8.54" length="16.33" shape="1269.42,652.84 1266.74,656.42 1265.84,660.00 1266.74,663.58 1269.42,667.16"/>
    </edge>
    <edge id=":115118_10" function="internal">
        <lane id=":115118_10_0" index="0" speed="13.73" length="17.52" shape="1269.42,652.84 1265.22,656.67 1261.36,659.41 1257.84,661.05 1254.67,661.60"/>
    </edge>
    <edge id=":115118_11" function="internal">
        <lane id=":115118_11_0" index="0" speed="3.65" length="4.67" shape="1269.42,652.84 1268.01,653.12 1267.16,652.84 1266.88,651.99 1267.16,650.58"/>
    </edge>
    <edge id=":115118_12" function="internal">
        <lane id=":115118_12_0" index="0" speed="12.73" length="15.02" shape="1254.67,658.40 1257.20,657.91 1260.13,656.44 1263.45,654.00 1267.16,650.58"/>
    </edge>
    <edge id=":115118_13" function="internal">
        <lane id=":115118_13_0" index="0" speed="13.89" length="17.05" shape="1254.67,658.40 1271.73,658.40"/>
    </edge>
    <edge id=":115118_14" function="internal">
        <lane id=":115118_14_0" index="0" speed="13.73" length="3.53" shape="1254.67,658.40 1257.84,658.95 1258.13,659.08"/>
    </edge>
    <edge id=":115118_15" function="internal">
        <lane id=":115118_15_0" index="0" speed="3.65" length="1.44" shape="1254.67,658.40 1255.87,659.20"/>
    </edge>
    <edge id=":115118_18" function="internal">
        <lane id=":115118_18_0" index="0" speed="13.73" length="13.98" shape="1258.13,659.08 1261.36,660.59 1265.22,663.33 1269.42,667.16"/>
    </edge>
    <edge id=":115118_19" function="internal">
        <lane id=":115118_19_0" index="0" speed="3.65" length="3.23" shape="1255.87,659.20 1256.27,660.00 1255.87,660.80 1254.67,661.60"/>
    </edge>
    <edge id=":115124_0" function="internal">
        <lane id=":115124_0_0" index="0" speed="5.47" length="9.74" shape="1318.40,611.73 1318.05,608.63 1317.01,607.22 1315.27,607.48 1312.84,609.42"/>
    </edge>
    <edge id=":115124_1" function="internal">
        <lane id=":115124_1_0" index="0" speed="13.89" length="17.05" shape="1318.40,611.73 1318.40,594.67"/>
    </edge>
    <edge id=":115124_2" function="internal">
        <lane id=":115124_2_0" index="0" speed="3.65" length="1.44" shape="1318.40,611.73 1319.20,610.53"/>
    </edge>
    <edge id=":115124_9" function="internal">
        <lane id=":115124_9_0" index="0" speed="3.65" length="3.23" shape="1319.20,610.53 1320.00,610.13 1320.80,610.53 1321.60,611.73"/>
    </edge>
    <edge id=":115124_3" function="internal">
        <lane id=":115124_3_0" index="0" speed="13.89" length="17.05" shape="1321.60,594.67 1321.60,611.73"/>
    </edge>
    <edge id=":115124_4" function="internal">
        <lane id=":115124_4_0" index="0" speed="13.73" length="3.53" shape="1321.60,594.67 1321.05,597.84 1320.92,598.13"/>
    </edge>
    <edge id=":115124_5" function="internal">
        <lane id=":115124_5_0" index="0" speed="3.65" length="1.44" shape="1321.60,594.67 1320.80,595.87"/>
    </edge>
    <edge id=":115124_10" function="internal">
        <lane id=":115124_10_0" index="0" speed="13.73" length="13.98" shape="1320.92,598.13 1319.41,601.36 1316.67,605.22 1312.84,609.42"/>
    </edge>
    <edge id=":115124_11" function="internal">
        <lane id=":115124_11_0" index="0" speed="3.65" length="3.23" shape="1320.80,595.87 1320.00,596.27 1319.20,595.87 1318.40,594.67"/>
    </edge>
    <edge id=":115124_6" function="internal">
        <lane id=":115124_6_0" index="0" speed="12.73" length="15.02" shape="1310.58,607.16 1314.00,603.45 1316.44,600.13 1317.91,597.20 1318.40,594.67"/>
    </edge>
    <edge id=":115124_7" function="internal">
        <lane id=":115124_7_0" index="0" speed="7.42" length="19.31" shape="1310.58,607.16 1315.40,603.31 1318.84,602.79 1320.91,605.59 1321.60,611.73"/>
    </edge>
    <edge id=":115124_8" function="internal">
        <lane id=":115124_8_0" index="0" speed="3.65" length="4.67" shape="1310.58,607.16 1311.99,606.88 1312.84,607.16 1313.12,608.01 1312.84,609.42"/>
    </edge>
    <edge id=":116764_0" function="internal">
        <lane id=":116764_0_0" index="0" speed="12.19" length="13.73" shape="1190.40,661.60 1185.93,661.81 1182.27,662.42 1179.42,663.45 1177.37,664.90"/>
    </edge>
    <edge id=":116764_1" function="internal">
        <lane id=":116764_1_0" index="0" speed="7.38" length="17.76" shape="1190.40,661.60 1184.96,660.92 1182.24,658.88 1182.24,655.48 1184.96,650.72"/>
    </edge>
    <edge id=":116764_2" function="internal">
        <lane id=":116764_2_0" index="0" speed="3.65" length="4.67" shape="1190.40,661.60 1189.20,660.80 1188.80,660.00 1189.20,659.20 1190.40,658.40"/>
    </edge>
    <edge id=":116764_3" function="internal">
        <lane id=":116764_3_0" index="0" speed="5.56" length="9.40" shape="1187.52,652.64 1186.08,655.16 1186.08,656.96 1187.52,658.04 1190.40,658.40"/>
    </edge>
    <edge id=":116764_4" function="internal">
        <lane id=":116764_4_0" index="0" speed="13.89" length="15.93" shape="1187.52,652.64 1185.16,655.75 1182.64,658.94 1180.02,662.05 1177.37,664.90"/>
    </edge>
    <edge id=":116764_5" function="internal">
        <lane id=":116764_5_0" index="0" speed="3.65" length="1.44" shape="1187.52,652.64 1186.16,653.12"/>
    </edge>
    <edge id=":116764_9" function="internal">
        <lane id=":116764_9_0" index="0" speed="3.65" length="3.23" shape="1186.16,653.12 1185.28,652.96 1184.88,652.16 1184.96,650.72"/>
    </edge>
    <edge id=":116764_6" function="internal">
        <lane id=":116764_6_0" index="0" speed="13.89" length="15.48" shape="1175.10,662.63 1177.71,659.84 1180.23,656.85 1182.65,653.77 1184.96,650.72"/>
    </edge>
    <edge id=":116764_7" function="internal">
        <lane id=":116764_7_0" index="0" speed="13.22" length="3.36" shape="1175.10,662.63 1177.65,660.78 1177.84,660.71"/>
    </edge>
    <edge id=":116764_8" function="internal">
        <lane id=":116764_8_0" index="0" speed="3.65" length="1.44" shape="1175.10,662.63 1176.52,662.35"/>
    </edge>
    <edge id=":116764_10" function="internal">
        <lane id=":116764_10_0" index="0" speed="13.22" length="12.87" shape="1177.84,660.71 1181.04,659.46 1185.30,658.66 1190.40,658.40"/>
    </edge>
    <edge id=":116764_11" function="internal">
        <lane id=":116764_11_0" index="0" speed="3.65" length="3.23" shape="1176.52,662.35 1177.37,662.63 1177.65,663.48 1177.37,664.90"/>
    </edge>
    <edge id=":121339_0" function="internal">
        <lane id=":121339_0_0" index="0" speed="5.92" length="9.10" shape="1458.40,648.44 1458.03,645.84 1456.92,644.27 1455.08,643.72 1452.50,644.19"/>
    </edge>
    <edge id=":121339_1" function="internal">
        <lane id=":121339_1_0" index="0" speed="9.05" length="14.99" shape="1458.40,648.44 1458.87,644.08 1460.28,640.70 1462.63,638.30 1465.92,636.87"/>
    </edge>
    <edge id=":121339_2" function="internal">
        <lane id=":121339_2_0" index="0" speed="3.65" length="4.67" shape="1458.40,648.44 1459.20,647.24 1460.00,646.84 1460.80,647.24 1461.60,648.44"/>
    </edge>
    <edge id=":121339_3" function="internal">
        <lane id=":121339_3_0" index="0" speed="7.73" length="10.71" shape="1466.69,639.98 1464.46,640.98 1462.87,642.73 1461.92,645.21 1461.60,648.44"/>
    </edge>
    <edge id=":121339_4" function="internal">
        <lane id=":121339_4_0" index="0" speed="13.89" length="14.80" shape="1466.69,639.98 1452.50,644.19"/>
    </edge>
    <edge id=":121339_5" function="internal">
        <lane id=":121339_5_0" index="0" speed="3.65" length="1.44" shape="1466.69,639.98 1465.33,639.49"/>
    </edge>
    <edge id=":121339_9" function="internal">
        <lane id=":121339_9_0" index="0" speed="3.65" length="3.23" shape="1465.33,639.49 1464.75,638.81 1464.95,637.94 1465.92,636.87"/>
    </edge>
    <edge id=":121339_6" function="internal">
        <lane id=":121339_6_0" index="0" speed="13.89" length="15.05" shape="1451.49,641.15 1465.92,636.87"/>
    </edge>
    <edge id=":121339_7" function="internal">
        <lane id=":121339_7_0" index="0" speed="7.55" length="4.73" shape="1451.49,641.15 1455.91,640.34 1456.13,640.41"/>
    </edge>
    <edge id=":121339_8" function="internal">
        <lane id=":121339_8_0" index="0" speed="3.65" length="1.44" shape="1451.49,641.15 1452.88,641.53"/>
    </edge>
    <edge id=":121339_10" function="internal">
        <lane id=":121339_10_0" index="0" speed="7.55" length="10.87" shape="1456.13,640.41 1459.07,641.29 1460.97,643.99 1461.60,648.44"/>
    </edge>
    <edge id=":121339_11" function="internal">
        <lane id=":121339_11_0" index="0" speed="3.65" length="3.23" shape="1452.88,641.53 1453.51,642.16 1453.38,643.05 1452.50,644.19"/>
    </edge>
    <edge id=":132745_0" function="internal">
        <lane id=":132745_0_0" index="0" speed="3.65" length="4.67" shape="1558.57,519.28 1559.82,518.57 1560.72,518.57 1561.25,519.28 1561.43,520.72"/>
    </edge>
    <edge id=":132769_0" function="internal">
        <lane id=":132769_0_0" index="0" speed="3.65" length="4.67" shape="1600.00,558.40 1601.20,559.20 1601.60,560.00 1601.20,560.80 1600.00,561.60"/>
    </edge>
    <edge id=":133116_0" function="internal">
        <lane id=":133116_0_0" index="0" speed="6.51" length="9.03" shape="1318.40,587.20 1318.05,584.75 1317.00,583.00 1315.25,581.95 1312.80,581.60"/>
    </edge>
    <edge id=":133116_1" function="internal">
        <lane id=":133116_1_0" index="0" speed="8.00" length="14.19" shape="1318.40,587.20 1318.95,583.35 1320.60,580.60 1323.35,578.95 1327.20,578.40"/>
    </edge>
    <edge id=":133116_2" function="internal">
        <lane id=":133116_2_0" index="0" speed="3.65" length="4.67" shape="1318.40,587.20 1319.20,586.00 1320.00,585.60 1320.80,586.00 1321.60,587.20"/>
    </edge>
    <edge id=":133116_3" function="internal">
        <lane id=":133116_3_0" index="0" speed="6.51" length="9.03" shape="1327.20,581.60 1324.75,581.95 1323.00,583.00 1321.95,584.75 1321.60,587.20"/>
    </edge>
    <edge id=":133116_4" function="internal">
        <lane id=":133116_4_0" index="0" speed="13.89" length="14.40" shape="1327.20,581.60 1312.80,581.60"/>
    </edge>
    <edge id=":133116_5" function="internal">
        <lane id=":133116_5_0" index="0" speed="3.65" length="1.44" shape="1327.20,581.60 1326.00,580.80"/>
    </edge>
    <edge id=":133116_9" function="internal">
        <lane id=":133116_9_0" index="0" speed="3.65" length="3.23" shape="1326.00,580.80 1325.60,580.00 1326.00,579.20 1327.20,578.40"/>
    </edge>
    <edge id=":133116_6" function="internal">
        <lane id=":133116_6_0" index="0" speed="13.89" length="14.40" shape="1312.80,578.40 1327.20,578.40"/>
    </edge>
    <edge id=":133116_7" function="internal">
        <lane id=":133116_7_0" index="0" speed="8.00" length="4.07" shape="1312.80,578.40 1316.65,578.95 1316.80,579.04"/>
    </edge>
    <edge id=":133116_8" function="internal">
        <lane id=":133116_8_0" index="0" speed="3.65" length="1.44" shape="1312.80,578.40 1314.00,579.20"/>
    </edge>
    <edge id=":133116_10" function="internal">
        <lane id=":133116_10_0" index="0" speed="8.00" length="10.13" shape="1316.80,579.04 1319.40,580.60 1321.05,583.35 1321.60,587.20"/>
    </edge>
    <edge id=":133116_11" function="internal">
        <lane id=":133116_11_0" index="0" speed="3.65" length="3.23" shape="1314.00,579.20 1314.40,580.00 1314.00,580.80 1312.80,581.60"/>
    </edge>
    <edge id=":134817_0" function="internal">
        <lane id=":134817_0_0" index="0" speed="6.49" length="14.35" shape="1595.67,613.41 1598.53,616.99 1598.92,619.55 1596.83,621.09 1592.27,621.60"/>
    </edge>
    <edge id=":134817_1" function="internal">
        <lane id=":134817_1_0" index="0" speed="3.65" length="1.44" shape="1595.67,613.41 1595.95,614.82"/>
    </edge>
    <edge id=":134817_4" function="internal">
        <lane id=":134817_4_0" index="0" speed="3.65" length="3.23" shape="1595.95,614.82 1595.67,615.67 1594.82,615.95 1593.41,615.67"/>
    </edge>
    <edge id=":134817_2" function="internal">
        <lane id=":134817_2_0" index="0" speed="4.12" length="4.78" shape="1592.27,618.40 1593.79,618.23 1594.49,617.72 1594.36,616.86 1593.41,615.67"/>
    </edge>
    <edge id=":134817_3" function="internal">
        <lane id=":134817_3_0" index="0" speed="3.65" length="1.33" shape="1592.27,618.40 1593.38,619.14"/>
    </edge>
    <edge id=":134817_5" function="internal">
        <lane id=":134817_5_0" index="0" speed="3.65" length="3.35" shape="1593.38,619.14 1593.47,619.20 1593.87,620.00 1593.47,620.80 1592.27,621.60"/>
    </edge>
    <edge id=":134823_0" function="internal">
        <lane id=":134823_0_0" index="0" speed="7.65" length="12.89" shape="1538.40,571.73 1538.05,567.30 1537.00,564.13 1535.25,562.23 1532.80,561.60"/>
    </edge>
    <edge id=":134823_1" function="internal">
        <lane id=":134823_1_0" index="0" speed="13.89" length="21.18" shape="1538.40,571.73 1538.75,567.02 1539.70,561.20 1541.06,555.49 1542.67,551.08"/>
    </edge>
    <edge id=":134823_2" function="internal">
        <lane id=":134823_2_0" index="0" speed="9.73" length="21.49" shape="1538.40,571.73 1539.23,565.90 1541.73,561.73 1545.90,559.23 1551.73,558.40"/>
    </edge>
    <edge id=":134823_3" function="internal">
        <lane id=":134823_3_0" index="0" speed="7.42" length="19.31" shape="1538.40,571.73 1539.09,565.59 1541.16,562.79 1544.60,563.31 1549.42,567.16"/>
    </edge>
    <edge id=":134823_4" function="internal">
        <lane id=":134823_4_0" index="0" speed="3.65" length="4.67" shape="1538.40,571.73 1539.20,570.53 1540.00,570.13 1540.80,570.53 1541.60,571.73"/>
    </edge>
    <edge id=":134823_5" function="internal">
        <lane id=":134823_5_0" index="0" speed="5.47" length="9.74" shape="1547.16,569.42 1544.73,567.48 1542.99,567.22 1541.95,568.63 1541.60,571.73"/>
    </edge>
    <edge id=":134823_6" function="internal">
        <lane id=":134823_6_0" index="0" speed="13.42" length="16.74" shape="1547.16,569.42 1543.33,566.00 1539.66,563.56 1536.15,562.09 1532.80,561.60"/>
    </edge>
    <edge id=":134823_7" function="internal">
        <lane id=":134823_7_0" index="0" speed="10.84" length="20.30" shape="1547.16,569.42 1543.46,564.86 1541.48,560.28 1541.22,555.69 1542.67,551.08"/>
    </edge>
    <edge id=":134823_8" function="internal">
        <lane id=":134823_8_0" index="0" speed="7.42" length="19.31" shape="1547.16,569.42 1543.31,564.60 1542.79,561.16 1545.59,559.09 1551.73,558.40"/>
    </edge>
    <edge id=":134823_9" function="internal">
        <lane id=":134823_9_0" index="0" speed="3.65" length="4.67" shape="1547.16,569.42 1546.88,568.01 1547.16,567.16 1548.01,566.88 1549.42,567.16"/>
    </edge>
    <edge id=":134823_10" function="internal">
        <lane id=":134823_10_0" index="0" speed="5.47" length="9.74" shape="1551.73,561.60 1548.63,561.95 1547.22,562.99 1547.48,564.73 1549.42,567.16"/>
    </edge>
    <edge id=":134823_11" function="internal">
        <lane id=":134823_11_0" index="0" speed="8.54" length="16.33" shape="1551.73,561.60 1547.30,562.23 1544.13,564.13 1542.23,567.30 1541.60,571.73"/>
    </edge>
    <edge id=":134823_12" function="internal">
        <lane id=":134823_12_0" index="0" speed="13.89" length="18.93" shape="1551.73,561.60 1532.80,561.60"/>
    </edge>
    <edge id=":134823_13" function="internal">
        <lane id=":134823_13_0" index="0" speed="7.81" length="5.97" shape="1551.73,561.60 1545.79,560.94"/>
    </edge>
    <edge id=":134823_14" function="internal">
        <lane id=":134823_14_0" index="0" speed="3.65" length="1.44" shape="1551.73,561.60 1550.53,560.80"/>
    </edge>
    <edge id=":134823_25" function="internal">
        <lane id=":134823_25_0" index="0" speed="7.81" length="12.27" shape="1545.79,560.94 1542.31,558.97 1541.27,555.68 1542.67,551.08"/>
    </edge>
    <edge id=":134823_26" function="internal">
        <lane id=":134823_26_0" index="0" speed="3.65" length="3.23" shape="1550.53,560.80 1550.13,560.00 1550.53,559.20 1551.73,558.40"/>
    </edge>
    <edge id=":134823_15" function="internal">
        <lane id=":134823_15_0" index="0" speed="6.22" length="11.07" shape="1545.54,552.51 1544.82,555.09 1545.61,556.93 1547.91,558.03 1551.73,558.40"/>
    </edge>
    <edge id=":134823_16" function="internal">
        <lane id=":134823_16_0" index="0" speed="9.75" length="16.28" shape="1545.54,552.51 1544.43,556.11 1544.71,559.76 1546.38,563.44 1549.42,567.16"/>
    </edge>
    <edge id=":134823_17" function="internal">
        <lane id=":134823_17_0" index="0" speed="13.89" length="19.72" shape="1545.54,552.51 1543.98,556.69 1542.73,561.92 1541.90,567.24 1541.60,571.73"/>
    </edge>
    <edge id=":134823_18" function="internal">
        <lane id=":134823_18_0" index="0" speed="10.58" length="16.52" shape="1545.54,552.51 1543.03,556.49 1540.08,559.33 1536.67,561.03 1532.80,561.60"/>
    </edge>
    <edge id=":134823_19" function="internal">
        <lane id=":134823_19_0" index="0" speed="3.65" length="4.67" shape="1545.54,552.51 1544.28,553.22 1543.39,553.22 1542.85,552.51 1542.67,551.08"/>
    </edge>
    <edge id=":134823_20" function="internal">