<?xml version="1.0" encoding="UTF-8"?>

<!-- generated on 2023-11-17 23:51:15 by Eclipse SUMO sumo Version 1.19.0
-->

<configuration xmlns:xsi="http://www.w3.org/2001/XMLSchema-instance" xsi:noNamespaceSchemaLocation="http://sumo.dlr.de/xsd/sumoConfiguration.xsd">

    <input>
        <net-file value="dualRoad.net.xml"/>
        <route-files value="dualRoadRoutes.rou.xml"/>
        <gui-settings-file value="style.xml"/>
    </input>

</configuration>
