<?xml version="1.0" encoding="UTF-8"?>

<!-- generated on 2023-12-21 08:38:43 by Eclipse SUMO netgenerate Version 1.19.0
<configuration xmlns:xsi="http://www.w3.org/2001/XMLSchema-instance" xsi:noNamespaceSchemaLocation="http://sumo.dlr.de/xsd/netgenerateConfiguration.xsd">

    <random_network>
        <rand value="true"/>
        <rand.iterations value="500"/>
        <rand.max-distance value="100"/>
        <rand.min-distance value="20"/>
        <rand.grid value="true"/>
    </random_network>

    <output>
        <human-readable-time value="true"/>
        <alphanumerical-ids value="true"/>
        <output-file value="smallMediumK0.net.xml"/>
    </output>

</configuration>
-->

<net version="1.16" junctionCornerDetail="5" limitTurnSpeed="5.50" xmlns:xsi="http://www.w3.org/2001/XMLSchema-instance" xsi:noNamespaceSchemaLocation="http://sumo.dlr.de/xsd/net_file.xsd">

    <location netOffset="860.00,700.00" convBoundary="0.00,0.00,1640.00,1300.00" origBoundary="-860.00,-700.00,780.00,600.00" projParameter="!"/>

    <edge id=":1_0" function="internal">
        <lane id=":1_0_0" index="0" speed="6.51" length="9.03" shape="858.40,707.20 858.05,704.75 857.00,703.00 855.25,701.95 852.80,701.60"/>
    </edge>
    <edge id=":1_1" function="internal">
        <lane id=":1_1_0" index="0" speed="13.89" length="14.40" shape="858.40,707.20 858.40,692.80"/>
    </edge>
    <edge id=":1_2" function="internal">
        <lane id=":1_2_0" index="0" speed="8.00" length="4.07" shape="858.40,707.20 858.95,703.35 859.04,703.20"/>
    </edge>
    <edge id=":1_3" function="internal">
        <lane id=":1_3_0" index="0" speed="3.65" length="1.44" shape="858.40,707.20 859.20,706.00"/>
    </edge>
    <edge id=":1_16" function="internal">
        <lane id=":1_16_0" index="0" speed="8.00" length="10.13" shape="859.04,703.20 860.60,700.60 863.35,698.95 867.20,698.40"/>
    </edge>
    <edge id=":1_17" function="internal">
        <lane id=":1_17_0" index="0" speed="3.65" length="3.23" shape="859.20,706.00 860.00,705.60 860.80,706.00 861.60,707.20"/>
    </edge>
    <edge id=":1_4" function="internal">
        <lane id=":1_4_0" index="0" speed="6.51" length="9.03" shape="867.20,701.60 864.75,701.95 863.00,703.00 861.95,704.75 861.60,707.20"/>
    </edge>
    <edge id=":1_5" function="internal">
        <lane id=":1_5_0" index="0" speed="13.89" length="14.40" shape="867.20,701.60 852.80,701.60"/>
    </edge>
    <edge id=":1_6" function="internal">
        <lane id=":1_6_0" index="0" speed="8.00" length="14.19" shape="867.20,701.60 863.35,701.05 860.60,699.40 858.95,696.65 858.40,692.80"/>
    </edge>
    <edge id=":1_7" function="internal">
        <lane id=":1_7_0" index="0" speed="3.65" length="4.67" shape="867.20,701.60 866.00,700.80 865.60,700.00 866.00,699.20 867.20,698.40"/>
    </edge>
    <edge id=":1_8" function="internal">
        <lane id=":1_8_0" index="0" speed="6.51" length="9.03" shape="861.60,692.80 861.95,695.25 863.00,697.00 864.75,698.05 867.20,698.40"/>
    </edge>
    <edge id=":1_9" function="internal">
        <lane id=":1_9_0" index="0" speed="13.89" length="14.40" shape="861.60,692.80 861.60,707.20"/>
    </edge>
    <edge id=":1_10" function="internal">
        <lane id=":1_10_0" index="0" speed="8.00" length="4.07" shape="861.60,692.80 861.05,696.65 860.96,696.80"/>
    </edge>
    <edge id=":1_11" function="internal">
        <lane id=":1_11_0" index="0" speed="3.65" length="1.44" shape="861.60,692.80 860.80,694.00"/>
    </edge>
    <edge id=":1_18" function="internal">
        <lane id=":1_18_0" index="0" speed="8.00" length="10.13" shape="860.96,696.80 859.40,699.40 856.65,701.05 852.80,701.60"/>
    </edge>
    <edge id=":1_19" function="internal">
        <lane id=":1_19_0" index="0" speed="3.65" length="3.23" shape="860.80,694.00 860.00,694.40 859.20,694.00 858.40,692.80"/>
    </edge>
    <edge id=":1_12" function="internal">
        <lane id=":1_12_0" index="0" speed="6.51" length="9.03" shape="852.80,698.40 855.25,698.05 857.00,697.00 858.05,695.25 858.40,692.80"/>
    </edge>
    <edge id=":1_13" function="internal">
        <lane id=":1_13_0" index="0" speed="13.89" length="14.40" shape="852.80,698.40 867.20,698.40"/>
    </edge>
    <edge id=":1_14" function="internal">
        <lane id=":1_14_0" index="0" speed="8.00" length="14.19" shape="852.80,698.40 856.65,698.95 859.40,700.60 861.05,703.35 861.60,707.20"/>
    </edge>
    <edge id=":1_15" function="internal">
        <lane id=":1_15_0" index="0" speed="3.65" length="4.67" shape="852.80,698.40 854.00,699.20 854.40,700.00 854.00,700.80 852.80,701.60"/>
    </edge>
    <edge id=":10_0" function="internal">
        <lane id=":10_0_0" index="0" speed="6.51" length="9.03" shape="838.40,707.20 838.05,704.75 837.00,703.00 835.25,701.95 832.80,701.60"/>
    </edge>
    <edge id=":10_1" function="internal">
        <lane id=":10_1_0" index="0" speed="13.89" length="14.40" shape="838.40,707.20 838.40,692.80"/>
    </edge>
    <edge id=":10_2" function="internal">
        <lane id=":10_2_0" index="0" speed="8.00" length="4.07" shape="838.40,707.20 838.95,703.35 839.04,703.20"/>
    </edge>
    <edge id=":10_3" function="internal">
        <lane id=":10_3_0" index="0" speed="3.65" length="1.44" shape="838.40,707.20 839.20,706.00"/>
    </edge>
    <edge id=":10_16" function="internal">
        <lane id=":10_16_0" index="0" speed="8.00" length="10.13" shape="839.04,703.20 840.60,700.60 843.35,698.95 847.20,698.40"/>
    </edge>
    <edge id=":10_17" function="internal">
        <lane id=":10_17_0" index="0" speed="3.65" length="3.23" shape="839.20,706.00 840.00,705.60 840.80,706.00 841.60,707.20"/>
    </edge>
    <edge id=":10_4" function="internal">
        <lane id=":10_4_0" index="0" speed="6.51" length="9.03" shape="847.20,701.60 844.75,701.95 843.00,703.00 841.95,704.75 841.60,707.20"/>
    </edge>
    <edge id=":10_5" function="internal">
        <lane id=":10_5_0" index="0" speed="13.89" length="14.40" shape="847.20,701.60 832.80,701.60"/>
    </edge>
    <edge id=":10_6" function="internal">
        <lane id=":10_6_0" index="0" speed="8.00" length="14.19" shape="847.20,701.60 843.35,701.05 840.60,699.40 838.95,696.65 838.40,692.80"/>
    </edge>
    <edge id=":10_7" function="internal">
        <lane id=":10_7_0" index="0" speed="3.65" length="4.67" shape="847.20,701.60 846.00,700.80 845.60,700.00 846.00,699.20 847.20,698.40"/>
    </edge>
    <edge id=":10_8" function="internal">
        <lane id=":10_8_0" index="0" speed="6.51" length="9.03" shape="841.60,692.80 841.95,695.25 843.00,697.00 844.75,698.05 847.20,698.40"/>
    </edge>
    <edge id=":10_9" function="internal">
        <lane id=":10_9_0" index="0" speed="13.89" length="14.40" shape="841.60,692.80 841.60,707.20"/>
    </edge>
    <edge id=":10_10" function="internal">
        <lane id=":10_10_0" index="0" speed="8.00" length="4.07" shape="841.60,692.80 841.05,696.65 840.96,696.80"/>
    </edge>
    <edge id=":10_11" function="internal">
        <lane id=":10_11_0" index="0" speed="3.65" length="1.44" shape="841.60,692.80 840.80,694.00"/>
    </edge>
    <edge id=":10_18" function="internal">
        <lane id=":10_18_0" index="0" speed="8.00" length="10.13" shape="840.96,696.80 839.40,699.40 836.65,701.05 832.80,701.60"/>
    </edge>
    <edge id=":10_19" function="internal">
        <lane id=":10_19_0" index="0" speed="3.65" length="3.23" shape="840.80,694.00 840.00,694.40 839.20,694.00 838.40,692.80"/>
    </edge>
    <edge id=":10_12" function="internal">
        <lane id=":10_12_0" index="0" speed="6.51" length="9.03" shape="832.80,698.40 835.25,698.05 837.00,697.00 838.05,695.25 838.40,692.80"/>
    </edge>
    <edge id=":10_13" function="internal">
        <lane id=":10_13_0" index="0" speed="13.89" length="14.40" shape="832.80,698.40 847.20,698.40"/>
    </edge>
    <edge id=":10_14" function="internal">
        <lane id=":10_14_0" index="0" speed="8.00" length="14.19" shape="832.80,698.40 836.65,698.95 839.40,700.60 841.05,703.35 841.60,707.20"/>
    </edge>
    <edge id=":10_15" function="internal">
        <lane id=":10_15_0" index="0" speed="3.65" length="4.67" shape="832.80,698.40 834.00,699.20 834.40,700.00 834.00,700.80 832.80,701.60"/>
    </edge>
    <edge id=":100_0" function="internal">
        <lane id=":100_0_0" index="0" speed="5.47" length="9.74" shape="978.40,491.73 978.05,488.63 977.01,487.22 975.27,487.48 972.84,489.42"/>
    </edge>
    <edge id=":100_1" function="internal">
        <lane id=":100_1_0" index="0" speed="8.54" length="16.33" shape="978.40,491.73 977.77,487.30 975.87,484.13 972.70,482.23 968.27,481.60"/>
    </edge>
    <edge id=":100_2" function="internal">
        <lane id=":100_2_0" index="0" speed="13.71" length="17.48" shape="978.40,491.73 978.56,487.52 979.19,482.87 980.48,478.49 982.63,475.10"/>
    </edge>
    <edge id=":100_3" function="internal">
        <lane id=":100_3_0" index="0" speed="3.65" length="4.67" shape="978.40,491.73 979.20,490.53 980.00,490.13 980.80,490.53 981.60,491.73"/>
    </edge>
    <edge id=":100_4" function="internal">
        <lane id=":100_4_0" index="0" speed="12.73" length="15.02" shape="984.90,477.37 983.45,479.50 982.42,482.60 981.81,486.68 981.60,491.73"/>
    </edge>
    <edge id=":100_5" function="internal">
        <lane id=":100_5_0" index="0" speed="13.89" length="17.05" shape="984.90,477.37 972.84,489.42"/>
    </edge>
    <edge id=":100_6" function="internal">
        <lane id=":100_6_0" index="0" speed="13.73" length="3.53" shape="984.90,477.37 982.27,479.22 981.97,479.33"/>
    </edge>
    <edge id=":100_7" function="internal">
        <lane id=":100_7_0" index="0" speed="3.65" length="1.44" shape="984.90,477.37 983.48,477.65"/>
    </edge>
    <edge id=":100_16" function="internal">
        <lane id=":100_16_0" index="0" speed="13.73" length="13.98" shape="981.97,479.33 978.62,480.54 973.96,481.34 968.27,481.60"/>
    </edge>
    <edge id=":100_17" function="internal">
        <lane id=":100_17_0" index="0" speed="3.65" length="3.23" shape="983.48,477.65 982.63,477.37 982.35,476.52 982.63,475.10"/>
    </edge>
    <edge id=":100_8" function="internal">
        <lane id=":100_8_0" index="0" speed="12.73" length="15.02" shape="968.27,478.40 973.32,478.19 977.40,477.58 980.50,476.55 982.63,475.10"/>
    </edge>
    <edge id=":100_9" function="internal">
        <lane id=":100_9_0" index="0" speed="9.73" length="21.49" shape="968.27,478.40 974.10,479.23 978.27,481.73 980.77,485.90 981.60,491.73"/>
    </edge>
    <edge id=":100_10" function="internal">
        <lane id=":100_10_0" index="0" speed="7.42" length="19.31" shape="968.27,478.40 974.41,479.09 977.21,481.16 976.69,484.60 972.84,489.42"/>
    </edge>
    <edge id=":100_11" function="internal">
        <lane id=":100_11_0" index="0" speed="3.65" length="4.67" shape="968.27,478.40 969.47,479.20 969.87,480.00 969.47,480.80 968.27,481.60"/>
    </edge>
    <edge id=":100_12" function="internal">
        <lane id=":100_12_0" index="0" speed="5.47" length="9.74" shape="970.58,487.16 972.52,484.73 972.78,482.99 971.37,481.95 968.27,481.60"/>
    </edge>
    <edge id=":100_13" function="internal">
        <lane id=":100_13_0" index="0" speed="13.89" length="17.05" shape="970.58,487.16 982.63,475.10"/>
    </edge>
    <edge id=":100_14" function="internal">
        <lane id=":100_14_0" index="0" speed="7.42" length="6.00" shape="970.58,487.16 975.27,483.42"/>
    </edge>
    <edge id=":100_15" function="internal">
        <lane id=":100_15_0" index="0" speed="3.65" length="1.44" shape="970.58,487.16 971.99,486.88"/>
    </edge>
    <edge id=":100_18" function="internal">
        <lane id=":100_18_0" index="0" speed="7.42" length="13.30" shape="975.27,483.42 975.40,483.31 978.84,482.79 980.91,485.59 981.60,491.73"/>
    </edge>
    <edge id=":100_19" function="internal">
        <lane id=":100_19_0" index="0" speed="3.65" length="3.23" shape="971.99,486.88 972.84,487.16 973.12,488.01 972.84,489.42"/>
    </edge>
    <edge id=":10071_0" function="internal">
        <lane id=":10071_0_0" index="0" speed="6.08" length="7.74" shape="681.60,776.80 681.30,778.90 680.40,780.40 678.90,781.30 676.80,781.60"/>
    </edge>
    <edge id=":10071_1" function="internal">
        <lane id=":10071_1_0" index="0" speed="3.90" length="2.58" shape="676.80,778.40 677.50,778.30 678.00,778.00 678.30,777.50 678.40,776.80"/>
    </edge>
    <edge id=":10073_0" function="internal">
        <lane id=":10073_0_0" index="0" speed="10.77" length="10.63" shape="602.63,864.90 600.78,863.45 598.53,862.42 595.87,861.81 592.80,861.60"/>
    </edge>
    <edge id=":10073_1" function="internal">
        <lane id=":10073_1_0" index="0" speed="11.94" length="13.14" shape="602.63,864.90 600.78,862.55 599.46,859.76 598.66,856.50 598.40,852.80"/>
    </edge>
    <edge id=":10073_2" function="internal">
        <lane id=":10073_2_0" index="0" speed="3.65" length="1.44" shape="602.63,864.90 602.35,863.48"/>
    </edge>
    <edge id=":10073_9" function="internal">
        <lane id=":10073_9_0" index="0" speed="3.65" length="3.23" shape="602.35,863.48 602.63,862.63 603.48,862.35 604.90,862.63"/>
    </edge>
    <edge id=":10073_3" function="internal">
        <lane id=":10073_3_0" index="0" speed="10.77" length="10.63" shape="601.60,852.80 601.81,855.87 602.42,858.53 603.45,860.78 604.90,862.63"/>
    </edge>
    <edge id=":10073_4" function="internal">
        <lane id=":10073_4_0" index="0" speed="8.00" length="3.37" shape="601.60,852.80 601.12,856.13"/>
    </edge>
    <edge id=":10073_5" function="internal">
        <lane id=":10073_5_0" index="0" speed="3.65" length="1.44" shape="601.60,852.80 600.80,854.00"/>
    </edge>
    <edge id=":10073_10" function="internal">
        <lane id=":10073_10_0" index="0" speed="8.00" length="10.83" shape="601.12,856.13 601.05,856.65 599.40,859.40 596.65,861.05 592.80,861.60"/>
    </edge>
    <edge id=":10073_11" function="internal">
        <lane id=":10073_11_0" index="0" speed="3.65" length="3.23" shape="600.80,854.00 600.00,854.40 599.20,854.00 598.40,852.80"/>
    </edge>
    <edge id=":10073_6" function="internal">
        <lane id=":10073_6_0" index="0" speed="6.51" length="9.03" shape="592.80,858.40 595.25,858.05 597.00,857.00 598.05,855.25 598.40,852.80"/>
    </edge>
    <edge id=":10073_7" function="internal">
        <lane id=":10073_7_0" index="0" speed="11.94" length="13.14" shape="592.80,858.40 596.50,858.66 599.76,859.46 602.55,860.78 604.90,862.63"/>
    </edge>
    <edge id=":10073_8" function="internal">
        <lane id=":10073_8_0" index="0" speed="3.65" length="4.67" shape="592.80,858.40 594.00,859.20 594.40,860.00 594.00,860.80 592.80,861.60"/>
    </edge>
    <edge id=":10089_0" function="internal">
        <lane id=":10089_0_0" index="0" speed="6.51" length="9.03" shape="138.40,767.20 138.05,764.75 137.00,763.00 135.25,761.95 132.80,761.60"/>
    </edge>
    <edge id=":10089_1" function="internal">
        <lane id=":10089_1_0" index="0" speed="8.00" length="14.19" shape="138.40,767.20 138.95,763.35 140.60,760.60 143.35,758.95 147.20,758.40"/>
    </edge>
    <edge id=":10089_2" function="internal">
        <lane id=":10089_2_0" index="0" speed="3.65" length="4.67" shape="138.40,767.20 139.20,766.00 140.00,765.60 140.80,766.00 141.60,767.20"/>
    </edge>
    <edge id=":10089_3" function="internal">
        <lane id=":10089_3_0" index="0" speed="6.51" length="9.03" shape="147.20,761.60 144.75,761.95 143.00,763.00 141.95,764.75 141.60,767.20"/>
    </edge>
    <edge id=":10089_4" function="internal">
        <lane id=":10089_4_0" index="0" speed="13.89" length="14.40" shape="147.20,761.60 132.80,761.60"/>
    </edge>
    <edge id=":10089_5" function="internal">
        <lane id=":10089_5_0" index="0" speed="3.65" length="1.44" shape="147.20,761.60 146.00,760.80"/>
    </edge>
    <edge id=":10089_9" function="internal">
        <lane id=":10089_9_0" index="0" speed="3.65" length="3.23" shape="146.00,760.80 145.60,760.00 146.00,759.20 147.20,758.40"/>
    </edge>
    <edge id=":10089_6" function="internal">
        <lane id=":10089_6_0" index="0" speed="13.89" length="14.40" shape="132.80,758.40 147.20,758.40"/>
    </edge>
    <edge id=":10089_7" function="internal">
        <lane id=":10089_7_0" index="0" speed="8.00" length="4.07" shape="132.80,758.40 136.65,758.95 136.80,759.04"/>
    </edge>
    <edge id=":10089_8" function="internal">
        <lane id=":10089_8_0" index="0" speed="3.65" length="1.44" shape="132.80,758.40 134.00,759.20"/>
    </edge>
    <edge id=":10089_10" function="internal">
        <lane id=":10089_10_0" index="0" speed="8.00" length="10.13" shape="136.80,759.04 139.40,760.60 141.05,763.35 141.60,767.20"/>
    </edge>
    <edge id=":10089_11" function="internal">
        <lane id=":10089_11_0" index="0" speed="3.65" length="3.23" shape="134.00,759.20 134.40,760.00 134.00,760.80 132.80,761.60"/>
    </edge>
    <edge id=":10112_0" function="internal">
        <lane id=":10112_0_0" index="0" speed="3.90" length="2.58" shape="518.40,203.20 518.30,202.50 518.00,202.00 517.50,201.70 516.80,201.60"/>
    </edge>
    <edge id=":10112_1" function="internal">
        <lane id=":10112_1_0" index="0" speed="6.08" length="7.74" shape="516.80,198.40 518.90,198.70 520.40,199.60 521.30,201.10 521.60,203.20"/>
    </edge>
    <edge id=":10116_0" function="internal">
        <lane id=":10116_0_0" index="0" speed="4.08" length="1.49" shape="501.60,241.60 501.22,241.64 500.88,241.76 500.58,241.96 500.32,242.24"/>
    </edge>
    <edge id=":10116_1" function="internal">
        <lane id=":10116_1_0" index="0" speed="6.42" length="4.46" shape="497.76,240.32 498.54,239.48 499.44,238.88 500.46,238.52 501.60,238.40"/>
    </edge>
    <edge id=":10123_0" function="internal">
        <lane id=":10123_0_0" index="0" speed="7.65" length="12.89" shape="578.40,471.73 578.05,467.30 577.00,464.13 575.25,462.23 572.80,461.60"/>
    </edge>
    <edge id=":10123_1" function="internal">
        <lane id=":10123_1_0" index="0" speed="7.42" length="19.31" shape="578.40,471.73 579.09,465.59 581.16,462.79 584.60,463.31 589.42,467.16"/>
    </edge>
    <edge id=":10123_2" function="internal">
        <lane id=":10123_2_0" index="0" speed="3.65" length="4.67" shape="578.40,471.73 579.20,470.53 580.00,470.13 580.80,470.53 581.60,471.73"/>
    </edge>
    <edge id=":10123_3" function="internal">
        <lane id=":10123_3_0" index="0" speed="5.47" length="9.74" shape="587.16,469.42 584.73,467.48 582.99,467.22 581.95,468.63 581.60,471.73"/>
    </edge>
    <edge id=":10123_4" function="internal">
        <lane id=":10123_4_0" index="0" speed="13.42" length="16.74" shape="587.16,469.42 583.33,466.00 579.66,463.56 576.15,462.09 572.80,461.60"/>
    </edge>
    <edge id=":10123_5" function="internal">
        <lane id=":10123_5_0" index="0" speed="3.65" length="1.44" shape="587.16,469.42 586.88,468.01"/>
    </edge>
    <edge id=":10123_9" function="internal">
        <lane id=":10123_9_0" index="0" speed="3.65" length="3.23" shape="586.88,468.01 587.16,467.16 588.01,466.88 589.42,467.16"/>
    </edge>
    <edge id=":10123_6" function="internal">
        <lane id=":10123_6_0" index="0" speed="13.89" length="19.24" shape="572.80,458.40 576.79,458.95 580.89,460.59 585.10,463.33 589.42,467.16"/>
    </edge>
    <edge id=":10123_7" function="internal">
        <lane id=":10123_7_0" index="0" speed="8.94" length="4.59" shape="572.80,458.40 576.65,459.23 577.13,459.67"/>
    </edge>
    <edge id=":10123_8" function="internal">
        <lane id=":10123_8_0" index="0" speed="3.65" length="1.44" shape="572.80,458.40 574.00,459.20"/>
    </edge>
    <edge id=":10123_10" function="internal">
        <lane id=":10123_10_0" index="0" speed="8.94" length="13.40" shape="577.13,459.67 579.40,461.73 581.05,465.90 581.60,471.73"/>
    </edge>
    <edge id=":10123_11" function="internal">
        <lane id=":10123_11_0" index="0" speed="3.65" length="3.23" shape="574.00,459.20 574.40,460.00 574.00,460.80 572.80,461.60"/>
    </edge>
    <edge id=":10156_0" function="internal">
        <lane id=":10156_0_0" index="0" speed="6.51" length="9.03" shape="758.40,587.20 758.05,584.75 757.00,583.00 755.25,581.95 752.80,581.60"/>
    </edge>
    <edge id=":10156_1" function="internal">
        <lane id=":10156_1_0" index="0" speed="13.89" length="14.40" shape="758.40,587.20 758.40,572.80"/>
    </edge>
    <edge id=":10156_2" function="internal">
        <lane id=":10156_2_0" index="0" speed="3.65" length="1.44" shape="758.40,587.20 759.20,586.00"/>
    </edge>
    <edge id=":10156_9" function="internal">
        <lane id=":10156_9_0" index="0" speed="3.65" length="3.23" shape="759.20,586.00 760.00,585.60 760.80,586.00 761.60,587.20"/>
    </edge>
    <edge id=":10156_3" function="internal">
        <lane id=":10156_3_0" index="0" speed="13.89" length="14.40" shape="761.60,572.80 761.60,587.20"/>
    </edge>
    <edge id=":10156_4" function="internal">
        <lane id=":10156_4_0" index="0" speed="8.00" length="4.07" shape="761.60,572.80 761.05,576.65 760.96,576.80"/>
    </edge>
    <edge id=":10156_5" function="internal">
        <lane id=":10156_5_0" index="0" speed="3.65" length="1.44" shape="761.60,572.80 760.80,574.00"/>
    </edge>
    <edge id=":10156_10" function="internal">
        <lane id=":10156_10_0" index="0" speed="8.00" length="10.13" shape="760.96,576.80 759.40,579.40 756.65,581.05 752.80,581.60"/>
    </edge>
    <edge id=":10156_11" function="internal">
        <lane id=":10156_11_0" index="0" speed="3.65" length="3.23" shape="760.80,574.00 760.00,574.40 759.20,574.00 758.40,572.80"/>
    </edge>
    <edge id=":10156_6" function="internal">
        <lane id=":10156_6_0" index="0" speed="6.51" length="9.03" shape="752.80,578.40 755.25,578.05 757.00,577.00 758.05,575.25 758.40,572.80"/>
    </edge>
    <edge id=":10156_7" function="internal">
        <lane id=":10156_7_0" index="0" speed="8.00" length="14.19" shape="752.80,578.40 756.65,578.95 759.40,580.60 761.05,583.35 761.60,587.20"/>
    </edge>
    <edge id=":10156_8" function="internal">
        <lane id=":10156_8_0" index="0" speed="3.65" length="4.67" shape="752.80,578.40 754.00,579.20 754.40,580.00 754.00,580.80 752.80,581.60"/>
    </edge>
    <edge id=":10189_0" function="internal">
        <lane id=":10189_0_0" index="0" speed="5.74" length="9.18" shape="1338.40,429.18 1338.03,426.48 1336.93,424.97 1335.09,424.66 1332.51,425.54"/>
    </edge>
    <edge id=":10189_1" function="internal">
        <lane id=":10189_1_0" index="0" speed="13.89" length="16.38" shape="1338.40,429.18 1338.40,412.80"/>
    </edge>
    <edge id=":10189_2" function="internal">
        <lane id=":10189_2_0" index="0" speed="8.42" length="4.99" shape="1338.40,429.18 1338.95,424.46 1339.06,424.25"/>
    </edge>
    <edge id=":10189_3" function="internal">
        <lane id=":10189_3_0" index="0" speed="3.65" length="1.44" shape="1338.40,429.18 1339.20,427.98"/>
    </edge>
    <edge id=":10189_16" function="internal">
        <lane id=":10189_16_0" index="0" speed="8.42" length="10.83" shape="1339.06,424.25 1340.60,421.09 1343.35,419.07 1347.20,418.40"/>
    </edge>
    <edge id=":10189_17" function="internal">
        <lane id=":10189_17_0" index="0" speed="3.65" length="3.23" shape="1339.20,427.98 1340.00,427.58 1340.80,427.98 1341.60,429.18"/>
    </edge>
    <edge id=":10189_4" function="internal">
        <lane id=":10189_4_0" index="0" speed="7.02" length="10.67" shape="1347.20,421.60 1344.75,422.07 1343.00,423.49 1341.95,425.86 1341.60,429.18"/>
    </edge>
    <edge id=":10189_5" function="internal">
        <lane id=":10189_5_0" index="0" speed="13.89" length="15.33" shape="1347.20,421.60 1343.42,421.90 1339.66,422.73 1335.99,423.98 1332.51,425.54"/>
    </edge>
    <edge id=":10189_6" function="internal">
        <lane id=":10189_6_0" index="0" speed="8.00" length="14.19" shape="1347.20,421.60 1343.35,421.05 1340.60,419.40 1338.95,416.65 1338.40,412.80"/>
    </edge>
    <edge id=":10189_7" function="internal">
        <lane id=":10189_7_0" index="0" speed="3.65" length="4.67" shape="1347.20,421.60 1346.00,420.80 1345.60,420.00 1346.00,419.20 1347.20,418.40"/>
    </edge>
    <edge id=":10189_8" function="internal">
        <lane id=":10189_8_0" index="0" speed="6.51" length="9.03" shape="1341.60,412.80 1341.95,415.25 1343.00,417.00 1344.75,418.05 1347.20,418.40"/>
    </edge>
    <edge id=":10189_9" function="internal">
        <lane id=":10189_9_0" index="0" speed="13.89" length="16.38" shape="1341.60,412.80 1341.60,429.18"/>
    </edge>
    <edge id=":10189_10" function="internal">
        <lane id=":10189_10_0" index="0" speed="10.47" length="4.13" shape="1341.60,412.80 1340.82,416.20 1340.50,416.76"/>
    </edge>
    <edge id=":10189_11" function="internal">
        <lane id=":10189_11_0" index="0" speed="3.65" length="1.44" shape="1341.60,412.80 1340.80,414.00"/>
    </edge>
    <edge id=":10189_18" function="internal">
        <lane id=":10189_18_0" index="0" speed="10.47" length="12.06" shape="1340.50,416.76 1338.76,419.85 1335.85,423.16 1332.51,425.54"/>
    </edge>
    <edge id=":10189_19" function="internal">
        <lane id=":10189_19_0" index="0" speed="3.65" length="3.23" shape="1340.80,414.00 1340.00,414.40 1339.20,414.00 1338.40,412.80"/>
    </edge>
    <edge id=":10189_12" function="internal">
        <lane id=":10189_12_0" index="0" speed="9.42" length="12.97" shape="1331.08,422.67 1334.28,420.68 1336.57,418.37 1337.94,415.75 1338.40,412.80"/>
    </edge>
    <edge id=":10189_13" function="internal">
        <lane id=":10189_13_0" index="0" speed="13.89" length="16.80" shape="1331.08,422.67 1334.78,421.06 1338.94,419.70 1343.20,418.75 1347.20,418.40"/>
    </edge>
    <edge id=":10189_14" function="internal">
        <lane id=":10189_14_0" index="0" speed="7.44" length="16.40" shape="1331.08,422.67 1335.68,421.11 1338.97,421.67 1340.94,424.36 1341.60,429.18"/>
    </edge>
    <edge id=":10189_15" function="internal">
        <lane id=":10189_15_0" index="0" speed="3.65" length="4.67" shape="1331.08,422.67 1332.51,422.85 1333.22,423.39 1333.22,424.28 1332.51,425.54"/>
    </edge>
    <edge id=":1020_0" function="internal">
        <lane id=":1020_0_0" index="0" speed="5.61" length="9.32" shape="838.40,749.98 838.04,747.16 836.95,745.71 835.13,745.61 832.58,746.87"/>
    </edge>
    <edge id=":1020_1" function="internal">
        <lane id=":1020_1_0" index="0" speed="13.89" length="15.69" shape="838.40,749.98 838.40,734.29"/>
    </edge>
    <edge id=":1020_2" function="internal">
        <lane id=":1020_2_0" index="0" speed="3.65" length="1.44" shape="838.40,749.98 839.20,748.78"/>
    </edge>
    <edge id=":1020_9" function="internal">
        <lane id=":1020_9_0" index="0" speed="3.65" length="3.23" shape="839.20,748.78 840.00,748.38 840.80,748.78 841.60,749.98"/>
    </edge>
    <edge id=":1020_3" function="internal">
        <lane id=":1020_3_0" index="0" speed="13.89" length="15.69" shape="841.60,734.29 841.60,749.98"/>
    </edge>
    <edge id=":1020_4" function="internal">
        <lane id=":1020_4_0" index="0" speed="11.27" length="3.53" shape="841.60,734.29 841.04,737.54 840.93,737.74"/>
    </edge>
    <edge id=":1020_5" function="internal">
        <lane id=":1020_5_0" index="0" speed="3.65" length="1.44" shape="841.60,734.29 840.80,735.49"/>
    </edge>
    <edge id=":1020_10" function="internal">
        <lane id=":1020_10_0" index="0" speed="11.27" length="12.55" shape="840.93,737.74 839.35,740.72 836.53,743.83 832.58,746.87"/>
    </edge>
    <edge id=":1020_11" function="internal">
        <lane id=":1020_11_0" index="0" speed="3.65" length="3.23" shape="840.80,735.49 840.00,735.89 839.20,735.49 838.40,734.29"/>
    </edge>
    <edge id=":1020_6" function="internal">
        <lane id=":1020_6_0" index="0" speed="10.16" length="12.94" shape="830.81,744.20 834.13,741.69 836.50,739.19 837.93,736.73 838.40,734.29"/>
    </edge>
    <edge id=":1020_7" function="internal">
        <lane id=":1020_7_0" index="0" speed="7.38" length="17.29" shape="830.81,744.20 835.53,741.87 838.90,742.05 840.93,744.75 841.60,749.98"/>
    </edge>
    <edge id=":1020_8" function="internal">
        <lane id=":1020_8_0" index="0" speed="3.65" length="4.67" shape="830.81,744.20 832.25,744.20 833.03,744.65 833.14,745.54 832.58,746.87"/>
    </edge>
    <edge id=":1032_0" function="internal">
        <lane id=":1032_0_0" index="0" speed="13.89" length="18.42" shape="778.40,849.98 778.40,831.56"/>
    </edge>
    <edge id=":1032_1" function="internal">
        <lane id=":1032_1_0" index="0" speed="10.75" length="5.15" shape="778.40,849.98 779.09,844.88"/>
    </edge>
    <edge id=":1032_2" function="internal">
        <lane id=":1032_2_0" index="0" speed="7.46" length="5.06" shape="778.40,849.98 779.08,844.96"/>
    </edge>
    <edge id=":1032_3" function="internal">
        <lane id=":1032_3_0" index="0" speed="3.65" length="1.44" shape="778.40,849.98 779.20,848.78"/>
    </edge>
    <edge id=":1032_16" function="internal">
        <lane id=":1032_16_0" index="0" speed="10.75" length="14.79" shape="779.09,844.88 781.17,840.71 784.64,837.46 789.50,835.15"/>
    </edge>
    <edge id=":1032_17" function="internal">
        <lane id=":1032_17_0" index="0" speed="7.46" length="12.60" shape="779.08,844.96 779.10,844.77 781.21,842.13 784.73,842.04 789.66,844.52"/>
    </edge>
    <edge id=":1032_18" function="internal">
        <lane id=":1032_18_0" index="0" speed="3.65" length="3.23" shape="779.20,848.78 780.00,848.38 780.80,848.78 781.60,849.98"/>
    </edge>
    <edge id=":1032_4" function="internal">
        <lane id=":1032_4_0" index="0" speed="5.70" length="9.70" shape="787.88,847.18 785.14,845.78 783.17,845.78 781.99,847.18 781.60,849.98"/>
    </edge>
    <edge id=":1032_5" function="internal">