<?xml version="1.0" encoding="UTF-8"?>

<!-- generated on 2023-12-21 11:39:14 by Eclipse SUMO sumo Version v1_19_0+0143-4ff360ee235
-->

<configuration xmlns:xsi="http://www.w3.org/2001/XMLSchema-instance" xsi:noNamespaceSchemaLocation="http://sumo.dlr.de/xsd/sumoConfiguration.xsd">

    <input>
        <net-file value="smallK0.net.xml"/>
        <route-files value="smallK0.rou.xml"/>
    </input>

</configuration>
