<?xml version="1.0" encoding="UTF-8"?>

<!-- generated on 2024-01-10 13:58:15 by Eclipse SUMO netedit Version v1_19_0+0143-4ff360ee235
<configuration xmlns:xsi="http://www.w3.org/2001/XMLSchema-instance" xsi:noNamespaceSchemaLocation="http://sumo.dlr.de/xsd/neteditConfiguration.xsd">

    <input>
        <sumo-net-file value="/Users/yara/Documents/UTWENTE/Academic Research skills/SpyingOnCyclists/sumoFiles/smallMedium/leftbottom.net.xml"/>
    </input>

    <output>
        <output-file value="/Users/yara/Documents/UTWENTE/Academic Research skills/SpyingOnCyclists/sumoFiles/smallMedium/leftbottom.net.xml"/>
    </output>

    <processing>
        <geometry.min-radius.fix.railways value="false"/>
        <geometry.max-grade.fix value="false"/>
        <offset.disable-normalization value="true"/>
        <lefthand value="0"/>
    </processing>

    <junctions>
        <no-turnarounds value="true"/>
        <junctions.corner-detail value="5"/>
        <junctions.limit-turn-speed value="5.50"/>
        <rectangular-lane-cut value="0"/>
    </junctions>

    <pedestrian>
        <walkingareas value="0"/>
    </pedestrian>

</configuration>
-->

<net version="1.16" junctionCornerDetail="5" limitTurnSpeed="5.50" xmlns:xsi="http://www.w3.org/2001/XMLSchema-instance" xsi:noNamespaceSchemaLocation="http://sumo.dlr.de/xsd/net_file.xsd">

    <location netOffset="860.00,700.00" convBoundary="80.00,200.00,580.00,700.00" origBoundary="-860.00,-700.00,780.00,600.00" projParameter="!"/>

    <edge id=":10112_0" function="internal">
        <lane id=":10112_0_0" index="0" speed="3.90" length="2.58" shape="518.40,203.20 518.30,202.50 518.00,202.00 517.50,201.70 516.80,201.60"/>
    </edge>
    <edge id=":10112_1" function="internal">
        <lane id=":10112_1_0" index="0" speed="6.08" length="7.74" shape="516.80,198.40 518.90,198.70 520.40,199.60 521.30,201.10 521.60,203.20"/>
    </edge>
    <edge id=":10116_0" function="internal">
        <lane id=":10116_0_0" index="0" speed="4.08" length="1.49" shape="501.60,241.60 501.22,241.64 500.88,241.76 500.58,241.96 500.32,242.24"/>
    </edge>
    <edge id=":10116_1" function="internal">
        <lane id=":10116_1_0" index="0" speed="6.42" length="4.46" shape="497.76,240.32 498.54,239.48 499.44,238.88 500.46,238.52 501.60,238.40"/>
    </edge>
    <edge id=":10439_0" function="internal">
        <lane id=":10439_0_0" index="0" speed="13.89" length="0.10" shape="400.00,601.60 400.00,601.60"/>
    </edge>
    <edge id=":10439_1" function="internal">
        <lane id=":10439_1_0" index="0" speed="13.89" length="0.10" shape="400.00,598.40 400.00,598.40"/>
    </edge>
    <edge id=":1060_0" function="internal">
        <lane id=":1060_0_0" index="0" speed="13.89" length="14.40" shape="498.40,547.20 498.40,532.80"/>
    </edge>
    <edge id=":1060_1" function="internal">
        <lane id=":1060_1_0" index="0" speed="8.00" length="4.07" shape="498.40,547.20 498.95,543.35 499.04,543.20"/>
    </edge>
    <edge id=":1060_2" function="internal">
        <lane id=":1060_2_0" index="0" speed="3.65" length="1.44" shape="498.40,547.20 499.20,546.00"/>
    </edge>
    <edge id=":1060_9" function="internal">
        <lane id=":1060_9_0" index="0" speed="8.00" length="10.13" shape="499.04,543.20 500.60,540.60 503.35,538.95 507.20,538.40"/>
    </edge>
    <edge id=":1060_10" function="internal">
        <lane id=":1060_10_0" index="0" speed="3.65" length="3.23" shape="499.20,546.00 500.00,545.60 500.80,546.00 501.60,547.20"/>
    </edge>
    <edge id=":1060_3" function="internal">
        <lane id=":1060_3_0" index="0" speed="6.51" length="9.03" shape="507.20,541.60 504.75,541.95 503.00,543.00 501.95,544.75 501.60,547.20"/>
    </edge>
    <edge id=":1060_4" function="internal">
        <lane id=":1060_4_0" index="0" speed="8.00" length="14.19" shape="507.20,541.60 503.35,541.05 500.60,539.40 498.95,536.65 498.40,532.80"/>
    </edge>
    <edge id=":1060_5" function="internal">
        <lane id=":1060_5_0" index="0" speed="3.65" length="4.67" shape="507.20,541.60 506.00,540.80 505.60,540.00 506.00,539.20 507.20,538.40"/>
    </edge>
    <edge id=":1060_6" function="internal">
        <lane id=":1060_6_0" index="0" speed="6.51" length="9.03" shape="501.60,532.80 501.95,535.25 503.00,537.00 504.75,538.05 507.20,538.40"/>
    </edge>
    <edge id=":1060_7" function="internal">
        <lane id=":1060_7_0" index="0" speed="13.89" length="14.40" shape="501.60,532.80 501.60,547.20"/>
    </edge>
    <edge id=":1060_8" function="internal">
        <lane id=":1060_8_0" index="0" speed="3.65" length="1.44" shape="501.60,532.80 500.80,534.00"/>
    </edge>
    <edge id=":1060_11" function="internal">
        <lane id=":1060_11_0" index="0" speed="3.65" length="3.23" shape="500.80,534.00 500.00,534.40 499.20,534.00 498.40,532.80"/>
    </edge>
    <edge id=":1223_0" function="internal">
        <lane id=":1223_0_0" index="0" speed="6.51" length="9.03" shape="418.40,627.20 418.05,624.75 417.00,623.00 415.25,621.95 412.80,621.60"/>
    </edge>
    <edge id=":1223_1" function="internal">
        <lane id=":1223_1_0" index="0" speed="8.00" length="14.19" shape="418.40,627.20 418.95,623.35 420.60,620.60 423.35,618.95 427.20,618.40"/>
    </edge>
    <edge id=":1223_2" function="internal">
        <lane id=":1223_2_0" index="0" speed="3.65" length="4.67" shape="418.40,627.20 419.20,626.00 420.00,625.60 420.80,626.00 421.60,627.20"/>
    </edge>
    <edge id=":1223_3" function="internal">
        <lane id=":1223_3_0" index="0" speed="6.51" length="9.03" shape="427.20,621.60 424.75,621.95 423.00,623.00 421.95,624.75 421.60,627.20"/>
    </edge>
    <edge id=":1223_4" function="internal">
        <lane id=":1223_4_0" index="0" speed="13.89" length="14.40" shape="427.20,621.60 412.80,621.60"/>
    </edge>
    <edge id=":1223_5" function="internal">
        <lane id=":1223_5_0" index="0" speed="3.65" length="1.44" shape="427.20,621.60 426.00,620.80"/>
    </edge>
    <edge id=":1223_9" function="internal">
        <lane id=":1223_9_0" index="0" speed="3.65" length="3.23" shape="426.00,620.80 425.60,620.00 426.00,619.20 427.20,618.40"/>
    </edge>
    <edge id=":1223_6" function="internal">
        <lane id=":1223_6_0" index="0" speed="13.89" length="14.40" shape="412.80,618.40 427.20,618.40"/>
    </edge>
    <edge id=":1223_7" function="internal">
        <lane id=":1223_7_0" index="0" speed="8.00" length="4.07" shape="412.80,618.40 416.65,618.95 416.80,619.04"/>
    </edge>
    <edge id=":1223_8" function="internal">
        <lane id=":1223_8_0" index="0" speed="3.65" length="1.44" shape="412.80,618.40 414.00,619.20"/>
    </edge>
    <edge id=":1223_10" function="internal">
        <lane id=":1223_10_0" index="0" speed="8.00" length="10.13" shape="416.80,619.04 419.40,620.60 421.05,623.35 421.60,627.20"/>
    </edge>
    <edge id=":1223_11" function="internal">
        <lane id=":1223_11_0" index="0" speed="3.65" length="3.23" shape="414.00,619.20 414.40,620.00 414.00,620.80 412.80,621.60"/>
    </edge>
    <edge id=":1225_0" function="internal">
        <lane id=":1225_0_0" index="0" speed="6.51" length="9.03" shape="498.40,487.20 498.05,484.75 497.00,483.00 495.25,481.95 492.80,481.60"/>
    </edge>
    <edge id=":1225_1" function="internal">
        <lane id=":1225_1_0" index="0" speed="13.89" length="14.40" shape="498.40,487.20 498.40,472.80"/>
    </edge>
    <edge id=":1225_2" function="internal">
        <lane id=":1225_2_0" index="0" speed="8.00" length="4.07" shape="498.40,487.20 498.95,483.35 499.04,483.20"/>
    </edge>
    <edge id=":1225_3" function="internal">
        <lane id=":1225_3_0" index="0" speed="3.65" length="1.44" shape="498.40,487.20 499.20,486.00"/>
    </edge>
    <edge id=":1225_16" function="internal">
        <lane id=":1225_16_0" index="0" speed="8.00" length="10.13" shape="499.04,483.20 500.60,480.60 503.35,478.95 507.20,478.40"/>
    </edge>
    <edge id=":1225_17" function="internal">
        <lane id=":1225_17_0" index="0" speed="3.65" length="3.23" shape="499.20,486.00 500.00,485.60 500.80,486.00 501.60,487.20"/>
    </edge>
    <edge id=":1225_4" function="internal">
        <lane id=":1225_4_0" index="0" speed="6.51" length="9.03" shape="507.20,481.60 504.75,481.95 503.00,483.00 501.95,484.75 501.60,487.20"/>
    </edge>
    <edge id=":1225_5" function="internal">
        <lane id=":1225_5_0" index="0" speed="13.89" length="14.40" shape="507.20,481.60 492.80,481.60"/>
    </edge>
    <edge id=":1225_6" function="internal">
        <lane id=":1225_6_0" index="0" speed="8.00" length="14.19" shape="507.20,481.60 503.35,481.05 500.60,479.40 498.95,476.65 498.40,472.80"/>
    </edge>
    <edge id=":1225_7" function="internal">
        <lane id=":1225_7_0" index="0" speed="3.65" length="4.67" shape="507.20,481.60 506.00,480.80 505.60,480.00 506.00,479.20 507.20,478.40"/>
    </edge>
    <edge id=":1225_8" function="internal">
        <lane id=":1225_8_0" index="0" speed="6.51" length="9.03" shape="501.60,472.80 501.95,475.25 503.00,477.00 504.75,478.05 507.20,478.40"/>
    </edge>
    <edge id=":1225_9" function="internal">
        <lane id=":1225_9_0" index="0" speed="13.89" length="14.40" shape="501.60,472.80 501.60,487.20"/>
    </edge>
    <edge id=":1225_10" function="internal">
        <lane id=":1225_10_0" index="0" speed="8.00" length="4.07" shape="501.60,472.80 501.05,476.65 500.96,476.80"/>
    </edge>
    <edge id=":1225_11" function="internal">
        <lane id=":1225_11_0" index="0" speed="3.65" length="1.44" shape="501.60,472.80 500.80,474.00"/>
    </edge>
    <edge id=":1225_18" function="internal">
        <lane id=":1225_18_0" index="0" speed="8.00" length="10.13" shape="500.96,476.80 499.40,479.40 496.65,481.05 492.80,481.60"/>
    </edge>
    <edge id=":1225_19" function="internal">
        <lane id=":1225_19_0" index="0" speed="3.65" length="3.23" shape="500.80,474.00 500.00,474.40 499.20,474.00 498.40,472.80"/>
    </edge>
    <edge id=":1225_12" function="internal">
        <lane id=":1225_12_0" index="0" speed="6.51" length="9.03" shape="492.80,478.40 495.25,478.05 497.00,477.00 498.05,475.25 498.40,472.80"/>
    </edge>
    <edge id=":1225_13" function="internal">
        <lane id=":1225_13_0" index="0" speed="13.89" length="14.40" shape="492.80,478.40 507.20,478.40"/>
    </edge>
    <edge id=":1225_14" function="internal">
        <lane id=":1225_14_0" index="0" speed="8.00" length="14.19" shape="492.80,478.40 496.65,478.95 499.40,480.60 501.05,483.35 501.60,487.20"/>
    </edge>
    <edge id=":1225_15" function="internal">
        <lane id=":1225_15_0" index="0" speed="3.65" length="4.67" shape="492.80,478.40 494.00,479.20 494.40,480.00 494.00,480.80 492.80,481.60"/>
    </edge>
    <edge id=":1227_0" function="internal">
        <lane id=":1227_0_0" index="0" speed="3.65" length="4.67" shape="580.00,538.40 581.20,539.20 581.60,540.00 581.20,540.80 580.00,541.60"/>
    </edge>
    <edge id=":1283_0" function="internal">
        <lane id=":1283_0_0" index="0" speed="3.65" length="4.67" shape="421.60,660.00 420.80,661.20 420.00,661.60 419.20,661.20 418.40,660.00"/>
    </edge>
    <edge id=":1287_0" function="internal">
        <lane id=":1287_0_0" index="0" speed="6.51" length="9.03" shape="338.40,627.20 338.05,624.75 337.00,623.00 335.25,621.95 332.80,621.60"/>
    </edge>
    <edge id=":1287_1" function="internal">
        <lane id=":1287_1_0" index="0" speed="8.00" length="14.19" shape="338.40,627.20 338.95,623.35 340.60,620.60 343.35,618.95 347.20,618.40"/>
    </edge>
    <edge id=":1287_2" function="internal">
        <lane id=":1287_2_0" index="0" speed="3.65" length="4.67" shape="338.40,627.20 339.20,626.00 340.00,625.60 340.80,626.00 341.60,627.20"/>
    </edge>
    <edge id=":1287_3" function="internal">
        <lane id=":1287_3_0" index="0" speed="6.51" length="9.03" shape="347.20,621.60 344.75,621.95 343.00,623.00 341.95,624.75 341.60,627.20"/>
    </edge>
    <edge id=":1287_4" function="internal">
        <lane id=":1287_4_0" index="0" speed="13.89" length="14.40" shape="347.20,621.60 332.80,621.60"/>
    </edge>
    <edge id=":1287_5" function="internal">
        <lane id=":1287_5_0" index="0" speed="3.65" length="1.44" shape="347.20,621.60 346.00,620.80"/>
    </edge>
    <edge id=":1287_9" function="internal">
        <lane id=":1287_9_0" index="0" speed="3.65" length="3.23" shape="346.00,620.80 345.60,620.00 346.00,619.20 347.20,618.40"/>
    </edge>
    <edge id=":1287_6" function="internal">
        <lane id=":1287_6_0" index="0" speed="13.89" length="14.40" shape="332.80,618.40 347.20,618.40"/>
    </edge>
    <edge id=":1287_7" function="internal">
        <lane id=":1287_7_0" index="0" speed="8.00" length="4.07" shape="332.80,618.40 336.65,618.95 336.80,619.04"/>
    </edge>
    <edge id=":1287_8" function="internal">
        <lane id=":1287_8_0" index="0" speed="3.65" length="1.44" shape="332.80,618.40 334.00,619.20"/>
    </edge>
    <edge id=":1287_10" function="internal">
        <lane id=":1287_10_0" index="0" speed="8.00" length="10.13" shape="336.80,619.04 339.40,620.60 341.05,623.35 341.60,627.20"/>
    </edge>
    <edge id=":1287_11" function="internal">
        <lane id=":1287_11_0" index="0" speed="3.65" length="3.23" shape="334.00,619.20 334.40,620.00 334.00,620.80 332.80,621.60"/>
    </edge>
    <edge id=":1314_0" function="internal">
        <lane id=":1314_0_0" index="0" speed="3.65" length="4.67" shape="341.60,700.00 340.80,701.20 340.00,701.60 339.20,701.20 338.40,700.00"/>
    </edge>
    <edge id=":1379_0" function="internal">
        <lane id=":1379_0_0" index="0" speed="3.65" length="4.67" shape="241.55,699.61 241.07,700.97 240.39,701.55 239.51,701.36 238.45,700.39"/>
    </edge>
    <edge id=":14411_0" function="internal">
        <lane id=":14411_0_0" index="0" speed="6.08" length="7.74" shape="461.60,596.80 461.30,598.90 460.40,600.40 458.90,601.30 456.80,601.60"/>
    </edge>
    <edge id=":14411_1" function="internal">
        <lane id=":14411_1_0" index="0" speed="3.90" length="2.58" shape="456.80,598.40 457.50,598.30 458.00,598.00 458.30,597.50 458.40,596.80"/>
    </edge>
    <edge id=":1452_0" function="internal">
        <lane id=":1452_0_0" index="0" speed="10.64" length="14.26" shape="307.20,621.60 304.11,622.07 301.18,623.50 298.41,625.87 295.80,629.19"/>
    </edge>
    <edge id=":1452_1" function="internal">
        <lane id=":1452_1_0" index="0" speed="13.89" length="17.18" shape="307.20,621.60 290.02,621.60"/>
    </edge>
    <edge id=":1452_2" function="internal">
        <lane id=":1452_2_0" index="0" speed="8.00" length="4.07" shape="307.20,621.60 303.35,621.05 303.20,620.96"/>
    </edge>
    <edge id=":1452_3" function="internal">
        <lane id=":1452_3_0" index="0" speed="3.65" length="1.44" shape="307.20,621.60 306.00,620.80"/>
    </edge>
    <edge id=":1452_16" function="internal">
        <lane id=":1452_16_0" index="0" speed="8.00" length="10.13" shape="303.20,620.96 300.60,619.40 298.95,616.65 298.40,612.80"/>
    </edge>
    <edge id=":1452_17" function="internal">
        <lane id=":1452_17_0" index="0" speed="3.65" length="3.23" shape="306.00,620.80 305.60,620.00 306.00,619.20 307.20,618.40"/>
    </edge>
    <edge id=":1452_4" function="internal">
        <lane id=":1452_4_0" index="0" speed="6.51" length="9.03" shape="301.60,612.80 301.95,615.25 303.00,617.00 304.75,618.05 307.20,618.40"/>
    </edge>
    <edge id=":1452_5" function="internal">
        <lane id=":1452_5_0" index="0" speed="13.89" length="17.57" shape="301.60,612.80 301.08,616.89 299.74,621.31 297.87,625.58 295.80,629.19"/>
    </edge>
    <edge id=":1452_6" function="internal">
        <lane id=":1452_6_0" index="0" speed="8.36" length="15.60" shape="301.60,612.80 300.47,616.03 297.63,618.85 293.88,620.84 290.02,621.60"/>
    </edge>
    <edge id=":1452_7" function="internal">
        <lane id=":1452_7_0" index="0" speed="3.65" length="4.67" shape="301.60,612.80 300.80,614.00 300.00,614.40 299.20,614.00 298.40,612.80"/>
    </edge>
    <edge id=":1452_8" function="internal">
        <lane id=":1452_8_0" index="0" speed="7.22" length="11.36" shape="290.02,618.40 293.69,618.05 296.31,617.00 297.88,615.25 298.40,612.80"/>
    </edge>
    <edge id=":1452_9" function="internal">
        <lane id=":1452_9_0" index="0" speed="13.89" length="17.18" shape="290.02,618.40 307.20,618.40"/>
    </edge>
    <edge id=":1452_10" function="internal">
        <lane id=":1452_10_0" index="0" speed="7.38" length="5.14" shape="290.02,618.40 295.12,619.06"/>
    </edge>
    <edge id=":1452_11" function="internal">
        <lane id=":1452_11_0" index="0" speed="3.65" length="1.44" shape="290.02,618.40 291.22,619.20"/>
    </edge>
    <edge id=":1452_18" function="internal">
        <lane id=":1452_18_0" index="0" speed="7.38" length="12.15" shape="295.12,619.06 295.25,619.07 297.95,621.10 298.13,624.47 295.80,629.19"/>
    </edge>
    <edge id=":1452_19" function="internal">
        <lane id=":1452_19_0" index="0" speed="3.65" length="3.23" shape="291.22,619.20 291.62,620.00 291.22,620.80 290.02,621.60"/>
    </edge>
    <edge id=":1452_12" function="internal">
        <lane id=":1452_12_0" index="0" speed="5.61" length="9.32" shape="293.13,627.42 294.39,624.87 294.29,623.05 292.84,621.96 290.02,621.60"/>
    </edge>
    <edge id=":1452_13" function="internal">
        <lane id=":1452_13_0" index="0" speed="13.89" length="15.73" shape="293.13,627.42 295.13,624.08 296.81,620.42 297.97,616.61 298.40,612.80"/>
    </edge>
    <edge id=":1452_14" function="internal">
        <lane id=":1452_14_0" index="0" speed="11.62" length="17.13" shape="293.13,627.42 296.03,624.11 299.78,621.22 303.73,619.17 307.20,618.40"/>
    </edge>
    <edge id=":1452_15" function="internal">
        <lane id=":1452_15_0" index="0" speed="3.65" length="4.67" shape="293.13,627.42 294.46,626.86 295.35,626.97 295.80,627.75 295.80,629.19"/>
    </edge>
    <edge id=":14668_0" function="internal">
        <lane id=":14668_0_0" index="0" speed="13.89" length="14.40" shape="447.20,361.60 432.80,361.60"/>
    </edge>
    <edge id=":14668_1" function="internal">
        <lane id=":14668_1_0" index="0" speed="8.00" length="4.07" shape="447.20,361.60 443.35,361.05 443.20,360.96"/>
    </edge>
    <edge id=":14668_2" function="internal">
        <lane id=":14668_2_0" index="0" speed="3.65" length="1.44" shape="447.20,361.60 446.00,360.80"/>
    </edge>
    <edge id=":14668_9" function="internal">
        <lane id=":14668_9_0" index="0" speed="8.00" length="10.13" shape="443.20,360.96 440.60,359.40 438.95,356.65 438.40,352.80"/>
    </edge>
    <edge id=":14668_10" function="internal">
        <lane id=":14668_10_0" index="0" speed="3.65" length="3.23" shape="446.00,360.80 445.60,360.00 446.00,359.20 447.20,358.40"/>
    </edge>
    <edge id=":14668_3" function="internal">
        <lane id=":14668_3_0" index="0" speed="6.51" length="9.03" shape="441.60,352.80 441.95,355.25 443.00,357.00 444.75,358.05 447.20,358.40"/>
    </edge>
    <edge id=":14668_4" function="internal">
        <lane id=":14668_4_0" index="0" speed="8.00" length="14.19" shape="441.60,352.80 441.05,356.65 439.40,359.40 436.65,361.05 432.80,361.60"/>
    </edge>
    <edge id=":14668_5" function="internal">
        <lane id=":14668_5_0" index="0" speed="3.65" length="4.67" shape="441.60,352.80 440.80,354.00 440.00,354.40 439.20,354.00 438.40,352.80"/>
    </edge>
    <edge id=":14668_6" function="internal">
        <lane id=":14668_6_0" index="0" speed="6.51" length="9.03" shape="432.80,358.40 435.25,358.05 437.00,357.00 438.05,355.25 438.40,352.80"/>
    </edge>
    <edge id=":14668_7" function="internal">
        <lane id=":14668_7_0" index="0" speed="13.89" length="14.40" shape="432.80,358.40 447.20,358.40"/>
    </edge>
    <edge id=":14668_8" function="internal">
        <lane id=":14668_8_0" index="0" speed="3.65" length="1.44" shape="432.80,358.40 434.00,359.20"/>
    </edge>
    <edge id=":14668_11" function="internal">
        <lane id=":14668_11_0" index="0" speed="3.65" length="3.23" shape="434.00,359.20 434.40,360.00 434.00,360.80 432.80,361.60"/>
    </edge>
    <edge id=":14941_0" function="internal">
        <lane id=":14941_0_0" index="0" speed="6.51" length="9.03" shape="438.40,327.20 438.05,324.75 437.00,323.00 435.25,321.95 432.80,321.60"/>
    </edge>
    <edge id=":14941_1" function="internal">
        <lane id=":14941_1_0" index="0" speed="13.89" length="13.42" shape="438.40,327.20 438.55,323.68 439.12,320.50 440.24,317.52 442.08,314.56"/>
    </edge>
    <edge id=":14941_2" function="internal">
        <lane id=":14941_2_0" index="0" speed="3.65" length="1.44" shape="438.40,327.20 439.20,326.00"/>
    </edge>
    <edge id=":14941_9" function="internal">
        <lane id=":14941_9_0" index="0" speed="3.65" length="3.23" shape="439.20,326.00 440.00,325.60 440.80,326.00 441.60,327.20"/>
    </edge>
    <edge id=":14941_3" function="internal">
        <lane id=":14941_3_0" index="0" speed="13.00" length="11.43" shape="444.64,316.48 442.90,319.14 442.00,321.46 441.65,323.98 441.60,327.20"/>
    </edge>
    <edge id=":14941_4" function="internal">
        <lane id=":14941_4_0" index="0" speed="10.72" length="3.13" shape="444.64,316.48 442.46,318.72"/>
    </edge>
    <edge id=":14941_5" function="internal">
        <lane id=":14941_5_0" index="0" speed="3.65" length="1.44" shape="444.64,316.48 443.28,316.96"/>
    </edge>
    <edge id=":14941_10" function="internal">
        <lane id=":14941_10_0" index="0" speed="10.72" length="10.25" shape="442.46,318.72 439.76,320.32 436.54,321.28 432.80,321.60"/>
    </edge>
    <edge id=":14941_11" function="internal">
        <lane id=":14941_11_0" index="0" speed="3.65" length="3.23" shape="443.28,316.96 442.40,316.80 442.00,316.00 442.08,314.56"/>
    </edge>
    <edge id=":14941_6" function="internal">
        <lane id=":14941_6_0" index="0" speed="9.51" length="10.41" shape="432.80,318.40 435.78,318.16 438.32,317.44 440.42,316.24 442.08,314.56"/>
    </edge>
    <edge id=":14941_7" function="internal">
        <lane id=":14941_7_0" index="0" speed="8.00" length="14.19" shape="432.80,318.40 436.65,318.95 439.40,320.60 441.05,323.35 441.60,327.20"/>
    </edge>
    <edge id=":14941_8" function="internal">
        <lane id=":14941_8_0" index="0" speed="3.65" length="4.67" shape="432.80,318.40 434.00,319.20 434.40,320.00 434.00,320.80 432.80,321.60"/>
    </edge>
    <edge id=":14975_0" function="internal">
        <lane id=":14975_0_0" index="0" speed="3.65" length="4.67" shape="460.00,358.40 461.20,359.20 461.60,360.00 461.20,360.80 460.00,361.60"/>
    </edge>
    <edge id=":15320_0" function="internal">
        <lane id=":15320_0_0" index="0" speed="6.98" length="12.15" shape="367.16,329.42 363.93,326.71 361.15,325.48 358.82,325.73 356.95,327.46"/>
    </edge>
    <edge id=":15320_1" function="internal">
        <lane id=":15320_1_0" index="0" speed="7.42" length="19.31" shape="367.16,329.42 363.31,324.60 362.79,321.16 365.59,319.09 371.73,318.40"/>
    </edge>
    <edge id=":15320_2" function="internal">
        <lane id=":15320_2_0" index="0" speed="3.65" length="4.67" shape="367.16,329.42 366.88,328.01 367.16,327.16 368.01,326.88 369.42,327.16"/>
    </edge>
    <edge id=":15320_3" function="internal">
        <lane id=":15320_3_0" index="0" speed="5.47" length="9.74" shape="371.73,321.60 368.63,321.95 367.22,322.99 367.48,324.73 369.42,327.16"/>
    </edge>
    <edge id=":15320_4" function="internal">
        <lane id=":15320_4_0" index="0" speed="11.42" length="16.53" shape="371.73,321.60 366.73,321.97 362.60,323.07 359.34,324.90 356.95,327.46"/>
    </edge>
    <edge id=":15320_5" function="internal">
        <lane id=":15320_5_0" index="0" speed="3.65" length="1.44" shape="371.73,321.60 370.53,320.80"/>
    </edge>
    <edge id=":15320_9" function="internal">
        <lane id=":15320_9_0" index="0" speed="3.65" length="3.23" shape="370.53,320.80 370.13,320.00 370.53,319.20 371.73,318.40"/>
    </edge>
    <edge id=":15320_6" function="internal">
        <lane id=":15320_6_0" index="0" speed="12.43" length="19.67" shape="354.28,325.69 357.20,322.50 361.07,320.22 365.92,318.86 371.73,318.40"/>
    </edge>
    <edge id=":15320_7" function="internal">
        <lane id=":15320_7_0" index="0" speed="8.38" length="5.24" shape="354.28,325.69 357.28,322.71 358.27,322.49"/>
    </edge>
    <edge id=":15320_8" function="internal">
        <lane id=":15320_8_0" index="0" speed="3.65" length="1.44" shape="354.28,325.69 355.62,325.13"/>
    </edge>
    <edge id=":15320_10" function="internal">
        <lane id=":15320_10_0" index="0" speed="8.38" length="12.79" shape="358.27,322.49 360.80,321.96 364.85,323.44 369.42,327.16"/>
    </edge>
    <edge id=":15320_11" function="internal">
        <lane id=":15320_11_0" index="0" speed="3.65" length="3.23" shape="355.62,325.13 356.50,325.24 356.95,326.02 356.95,327.46"/>
    </edge>
    <edge id=":15691_0" function="internal">
        <lane id=":15691_0_0" index="0" speed="6.51" length="9.03" shape="258.40,387.20 258.05,384.75 257.00,383.00 255.25,381.95 252.80,381.60"/>
    </edge>
    <edge id=":15691_1" function="internal">
        <lane id=":15691_1_0" index="0" speed="13.89" length="14.40" shape="258.40,387.20 258.40,372.80"/>
    </edge>
    <edge id=":15691_2" function="internal">
        <lane id=":15691_2_0" index="0" speed="8.00" length="4.07" shape="258.40,387.20 258.95,383.35 259.04,383.20"/>
    </edge>
    <edge id=":15691_3" function="internal">
        <lane id=":15691_3_0" index="0" speed="3.65" length="1.44" shape="258.40,387.20 259.20,386.00"/>
    </edge>
    <edge id=":15691_16" function="internal">
        <lane id=":15691_16_0" index="0" speed="8.00" length="10.13" shape="259.04,383.20 260.60,380.60 263.35,378.95 267.20,378.40"/>
    </edge>
    <edge id=":15691_17" function="internal">
        <lane id=":15691_17_0" index="0" speed="3.65" length="3.23" shape="259.20,386.00 260.00,385.60 260.80,386.00 261.60,387.20"/>
    </edge>
    <edge id=":15691_4" function="internal">
        <lane id=":15691_4_0" index="0" speed="6.51" length="9.03" shape="267.20,381.60 264.75,381.95 263.00,383.00 261.95,384.75 261.60,387.20"/>
    </edge>
    <edge id=":15691_5" function="internal">
        <lane id=":15691_5_0" index="0" speed="13.89" length="14.40" shape="267.20,381.60 252.80,381.60"/>
    </edge>
    <edge id=":15691_6" function="internal">
        <lane id=":15691_6_0" index="0" speed="8.00" length="14.19" shape="267.20,381.60 263.35,381.05 260.60,379.40 258.95,376.65 258.40,372.80"/>
    </edge>
    <edge id=":15691_7" function="internal">
        <lane id=":15691_7_0" index="0" speed="3.65" length="4.67" shape="267.20,381.60 266.00,380.80 265.60,380.00 266.00,379.20 267.20,378.40"/>
    </edge>
    <edge id=":15691_8" function="internal">
        <lane id=":15691_8_0" index="0" speed="6.51" length="9.03" shape="261.60,372.80 261.95,375.25 263.00,377.00 264.75,378.05 267.20,378.40"/>
    </edge>
    <edge id=":15691_9" function="internal">
        <lane id=":15691_9_0" index="0" speed="13.89" length="14.40" shape="261.60,372.80 261.60,387.20"/>
    </edge>
    <edge id=":15691_10" function="internal">
        <lane id=":15691_10_0" index="0" speed="8.00" length="4.07" shape="261.60,372.80 261.05,376.65 260.96,376.80"/>
    </edge>
    <edge id=":15691_11" function="internal">
        <lane id=":15691_11_0" index="0" speed="3.65" length="1.44" shape="261.60,372.80 260.80,374.00"/>
    </edge>
    <edge id=":15691_18" function="internal">
        <lane id=":15691_18_0" index="0" speed="8.00" length="10.13" shape="260.96,376.80 259.40,379.40 256.65,381.05 252.80,381.60"/>
    </edge>
    <edge id=":15691_19" function="internal">
        <lane id=":15691_19_0" index="0" speed="3.65" length="3.23" shape="260.80,374.00 260.00,374.40 259.20,374.00 258.40,372.80"/>
    </edge>
    <edge id=":15691_12" function="internal">
        <lane id=":15691_12_0" index="0" speed="6.51" length="9.03" shape="252.80,378.40 255.25,378.05 257.00,377.00 258.05,375.25 258.40,372.80"/>
    </edge>
    <edge id=":15691_13" function="internal">
        <lane id=":15691_13_0" index="0" speed="13.89" length="14.40" shape="252.80,378.40 267.20,378.40"/>
    </edge>
    <edge id=":15691_14" function="internal">
        <lane id=":15691_14_0" index="0" speed="8.00" length="14.19" shape="252.80,378.40 256.65,378.95 259.40,380.60 261.05,383.35 261.60,387.20"/>
    </edge>
    <edge id=":15691_15" function="internal">
        <lane id=":15691_15_0" index="0" speed="3.65" length="4.67" shape="252.80,378.40 254.00,379.20 254.40,380.00 254.00,380.80 252.80,381.60"/>
    </edge>
    <edge id=":1621_0" function="internal">
        <lane id=":1621_0_0" index="0" speed="6.51" length="9.03" shape="298.40,607.20 298.05,604.75 297.00,603.00 295.25,601.95 292.80,601.60"/>
    </edge>
    <edge id=":1621_1" function="internal">
        <lane id=":1621_1_0" index="0" speed="13.89" length="14.40" shape="298.40,607.20 298.40,592.80"/>
    </edge>
    <edge id=":1621_2" function="internal">
        <lane id=":1621_2_0" index="0" speed="8.00" length="4.07" shape="298.40,607.20 298.95,603.35 299.04,603.20"/>
    </edge>
    <edge id=":1621_3" function="internal">
        <lane id=":1621_3_0" index="0" speed="3.65" length="1.44" shape="298.40,607.20 299.20,606.00"/>
    </edge>
    <edge id=":1621_16" function="internal">
        <lane id=":1621_16_0" index="0" speed="8.00" length="10.13" shape="299.04,603.20 300.60,600.60 303.35,598.95 307.20,598.40"/>
    </edge>
    <edge id=":1621_17" function="internal">
        <lane id=":1621_17_0" index="0" speed="3.65" length="3.23" shape="299.20,606.00 300.00,605.60 300.80,606.00 301.60,607.20"/>
    </edge>
    <edge id=":1621_4" function="internal">
        <lane id=":1621_4_0" index="0" speed="6.51" length="9.03" shape="307.20,601.60 304.75,601.95 303.00,603.00 301.95,604.75 301.60,607.20"/>
    </edge>