<?xml version="1.0" encoding="UTF-8"?>

<!-- generated on 2023-12-21 12:59:15 by Eclipse SUMO sumo Version v1_19_0+0143-4ff360ee235
-->

<configuration xmlns:xsi="http://www.w3.org/2001/XMLSchema-instance" xsi:noNamespaceSchemaLocation="http://sumo.dlr.de/xsd/sumoConfiguration.xsd">

    <input>
        <net-file value="medium.net.xml"/>
        <route-files value="medium.rou.xml"/>
        <gui-settings-file value="../style.xml"/>
    </input>

</configuration>
