<?xml version="1.0" encoding="UTF-8"?>

<!-- generated on 2024-01-19 13:44:47.147504 by randomTrips.py v1_19_0+0143-4ff360ee235
<configuration>
    <net-file value="medium.net.xml"/>
    <output-trip-file value="medium.xml"/>
    <route-file value="medium.rou.xml"/>
    <trip-attributes value="maxSpeed=&quot;20.0&quot;"/>
    <vehicle-class value="bicycle"/>
    <end value="25.0"/>
</configuration>
-->

<!-- generated on 2024-01-19 13:44:47 by Eclipse SUMO duarouter Version v1_19_0+0143-4ff360ee235
<configuration xmlns:xsi="http://www.w3.org/2001/XMLSchema-instance" xsi:noNamespaceSchemaLocation="http://sumo.dlr.de/xsd/duarouterConfiguration.xsd">

    <input>
        <net-file value="medium.net.xml"/>
        <route-files value="medium.xml"/>
    </input>

    <output>
        <output-file value="medium.rou.xml"/>
        <alternatives-output value="NUL"/>
    </output>

    <time>
        <begin value="0"/>
        <end value="25.0"/>
    </time>

    <report>
        <no-warnings value="true"/>
        <ignore-errors value="true"/>
        <no-step-log value="true"/>
    </report>

</configuration>
-->

<routes xmlns:xsi="http://www.w3.org/2001/XMLSchema-instance" xsi:noNamespaceSchemaLocation="http://sumo.dlr.de/xsd/routes_file.xsd">
    <vType id="bicycle" maxSpeed="20.00" vClass="bicycle"/>
    <vehicle id="0" type="bicycle" depart="0.00">
        <route edges="2167 -2167 -1805 -277 -253 -79 75 -371 412 544 918 924 1070 1204 -1205"/>
    </vehicle>
    <vehicle id="1" type="bicycle" depart="1.00">
        <route edges="-3090 -2187 -1805 -277"/>
    </vehicle>
    <vehicle id="2" type="bicycle" depart="2.00">
        <route edges="2737 -2377 -2171 -1805 -277 -253 -79 -60 -31 -23 -305 -293 -68 809 -1577 1583 1614 2315 2319 2712"/>
    </vehicle>
    <vehicle id="3" type="bicycle" depart="3.00">
        <route edges="4166 -4166 -4078 -3870 -2702 -1610 -1583 -1561 -1745"/>
    </vehicle>
    <vehicle id="4" type="bicycle" depart="4.00">
        <route edges="-4416 -2516 -2205 -1815 -1217"/>
    </vehicle>
    <vehicle id="5" type="bicycle" depart="5.00">
        <route edges="-2737 -2364 -2167 -1805 -277 -253 -79 75 -371 372 316 338 932 1333 -1211 1217"/>
    </vehicle>
    <vehicle id="6" type="bicycle" depart="6.00">
        <route edges="-1204 1204 -1205 1211 -1408 -1379 1373 2328 2714 -2715"/>
    </vehicle>
    <vehicle id="7" type="bicycle" depart="7.00">
        <route edges="2200 -2197 -1200 -1071 -926 -533 806 1042 -1182 1561"/>
    </vehicle>
    <vehicle id="8" type="bicycle" depart="8.00">
        <route edges="-2740 -2377 -2171 -1805 -277 269 2063"/>
    </vehicle>
    <vehicle id="9" type="bicycle" depart="9.00">
        <route edges="3308 -3306 -2534 -2312 -811 -43 -27 -3 5 542 -806 533 926 1071 1200 2746 -1050"/>
    </vehicle>
    <vehicle id="10" type="bicycle" depart="10.00">
        <route edges="3306 -3308 -2596 -2312 -811 -43 -27 -3 5 542 1044 -1407 1408 1554 -1536 1540 2513 2751"/>
    </vehicle>
    <vehicle id="11" type="bicycle" depart="11.00">
        <route edges="-3851 3865 -3928 -3442 -2977 -2784 -2733 -2331 -2039 -269 277 1805 2187 -2336"/>
    </vehicle>
    <vehicle id="12" type="bicycle" depart="12.00">
        <route edges="658 -328 338 932 -1185 1354 1373 4129 -4125 -3922"/>
    </vehicle>
    <vehicle id="13" type="bicycle" depart="13.00">
        <route edges="-1747 -1624 -1593 1577 -809 68 293 305 23 31 60 79 253 277 1805 -1805"/>
    </vehicle>
    <vehicle id="14" type="bicycle" depart="14.00">
        <route edges="3725 -2935 -2759 -2513 2202"/>
    </vehicle>
    <vehicle id="15" type="bicycle" depart="15.00">
        <route edges="3306 -3308 -2596 -2312 -811 -43 -27 -3 5 542 1044 -1407 1408 1554 -1536 1540 2513 2759 2941"/>
    </vehicle>
    <vehicle id="16" type="bicycle" depart="16.00">
        <route edges="1071 -1071 -926 804"/>
    </vehicle>
    <vehicle id="17" type="bicycle" depart="17.00">
        <route edges="-4124 4124 -4129 1729 -1622 -1593 1593"/>
    </vehicle>
    <vehicle id="18" type="bicycle" depart="18.00">
        <route edges="355 372 -15 3 27 43 809 -1577 1593 1618 -2322 -2320 2321"/>
    </vehicle>
    <vehicle id="19" type="bicycle" depart="19.00">
        <route edges="3922 4125 -4129 -1373 1379 1408 -1211 1217 1815"/>
    </vehicle>
    <vehicle id="20" type="bicycle" depart="20.00">
        <route edges="253 -253 -79 -60 -31 -23 -11 5 542 1044 1409 -1403"/>
    </vehicle>
    <vehicle id="21" type="bicycle" depart="21.00">
        <route edges="-2765 -811 809 -1577 1593 1618 -2322 2326 2723 2777 -3324"/>
    </vehicle>
    <vehicle id="22" type="bicycle" depart="22.00">
        <route edges="-1614 -1583 1577 -809 68 293 305 23 31 60 79 253 269 2039 -2782"/>
    </vehicle>
    <vehicle id="23" type="bicycle" depart="23.00">
        <route edges="-1805 -277 -253 -79 75 -371 372 316 -320"/>
    </vehicle>
    <vehicle id="24" type="bicycle" depart="24.00">
        <route edges="2039 -2039 -269 277 1805 2171 2365 3942 3948 4144 -4144"/>
    </vehicle>
</routes>
