<?xml version="1.0" encoding="UTF-8"?>

<!-- generated on 2024-01-19 13:54:00 by Eclipse SUMO netgenerate Version 1.19.0
<configuration xmlns:xsi="http://www.w3.org/2001/XMLSchema-instance" xsi:noNamespaceSchemaLocation="http://sumo.dlr.de/xsd/netgenerateConfiguration.xsd">

    <random_network>
        <rand value="true"/>
        <rand.iterations value="125"/>
        <rand.max-distance value="100"/>
        <rand.min-distance value="40"/>
        <rand.grid value="true"/>
    </random_network>

    <output>
        <human-readable-time value="true"/>
        <alphanumerical-ids value="true"/>
        <output-file value="small2.net.xml"/>
    </output>

</configuration>
-->

<net version="1.16" junctionCornerDetail="5" limitTurnSpeed="5.50" xmlns:xsi="http://www.w3.org/2001/XMLSchema-instance" xsi:noNamespaceSchemaLocation="http://sumo.dlr.de/xsd/net_file.xsd">

    <location netOffset="440.00,480.00" convBoundary="0.00,0.00,920.00,880.00" origBoundary="-440.00,-480.00,480.00,400.00" projParameter="!"/>

    <edge id=":1_0" function="internal">
        <lane id=":1_0_0" index="0" speed="6.51" length="9.03" shape="438.40,487.20 438.05,484.75 437.00,483.00 435.25,481.95 432.80,481.60"/>
    </edge>
    <edge id=":1_1" function="internal">
        <lane id=":1_1_0" index="0" speed="13.89" length="14.40" shape="438.40,487.20 438.40,472.80"/>
    </edge>
    <edge id=":1_2" function="internal">
        <lane id=":1_2_0" index="0" speed="8.00" length="4.07" shape="438.40,487.20 438.95,483.35 439.04,483.20"/>
    </edge>
    <edge id=":1_3" function="internal">
        <lane id=":1_3_0" index="0" speed="3.65" length="1.44" shape="438.40,487.20 439.20,486.00"/>
    </edge>
    <edge id=":1_16" function="internal">
        <lane id=":1_16_0" index="0" speed="8.00" length="10.13" shape="439.04,483.20 440.60,480.60 443.35,478.95 447.20,478.40"/>
    </edge>
    <edge id=":1_17" function="internal">
        <lane id=":1_17_0" index="0" speed="3.65" length="3.23" shape="439.20,486.00 440.00,485.60 440.80,486.00 441.60,487.20"/>
    </edge>
    <edge id=":1_4" function="internal">
        <lane id=":1_4_0" index="0" speed="6.51" length="9.03" shape="447.20,481.60 444.75,481.95 443.00,483.00 441.95,484.75 441.60,487.20"/>
    </edge>
    <edge id=":1_5" function="internal">
        <lane id=":1_5_0" index="0" speed="13.89" length="14.40" shape="447.20,481.60 432.80,481.60"/>
    </edge>
    <edge id=":1_6" function="internal">
        <lane id=":1_6_0" index="0" speed="8.00" length="14.19" shape="447.20,481.60 443.35,481.05 440.60,479.40 438.95,476.65 438.40,472.80"/>
    </edge>
    <edge id=":1_7" function="internal">
        <lane id=":1_7_0" index="0" speed="3.65" length="4.67" shape="447.20,481.60 446.00,480.80 445.60,480.00 446.00,479.20 447.20,478.40"/>
    </edge>
    <edge id=":1_8" function="internal">
        <lane id=":1_8_0" index="0" speed="6.51" length="9.03" shape="441.60,472.80 441.95,475.25 443.00,477.00 444.75,478.05 447.20,478.40"/>
    </edge>
    <edge id=":1_9" function="internal">
        <lane id=":1_9_0" index="0" speed="13.89" length="14.40" shape="441.60,472.80 441.60,487.20"/>
    </edge>
    <edge id=":1_10" function="internal">
        <lane id=":1_10_0" index="0" speed="8.00" length="4.07" shape="441.60,472.80 441.05,476.65 440.96,476.80"/>
    </edge>
    <edge id=":1_11" function="internal">
        <lane id=":1_11_0" index="0" speed="3.65" length="1.44" shape="441.60,472.80 440.80,474.00"/>
    </edge>
    <edge id=":1_18" function="internal">
        <lane id=":1_18_0" index="0" speed="8.00" length="10.13" shape="440.96,476.80 439.40,479.40 436.65,481.05 432.80,481.60"/>
    </edge>
    <edge id=":1_19" function="internal">
        <lane id=":1_19_0" index="0" speed="3.65" length="3.23" shape="440.80,474.00 440.00,474.40 439.20,474.00 438.40,472.80"/>
    </edge>
    <edge id=":1_12" function="internal">
        <lane id=":1_12_0" index="0" speed="6.51" length="9.03" shape="432.80,478.40 435.25,478.05 437.00,477.00 438.05,475.25 438.40,472.80"/>
    </edge>
    <edge id=":1_13" function="internal">
        <lane id=":1_13_0" index="0" speed="13.89" length="14.40" shape="432.80,478.40 447.20,478.40"/>
    </edge>
    <edge id=":1_14" function="internal">
        <lane id=":1_14_0" index="0" speed="8.00" length="14.19" shape="432.80,478.40 436.65,478.95 439.40,480.60 441.05,483.35 441.60,487.20"/>
    </edge>
    <edge id=":1_15" function="internal">
        <lane id=":1_15_0" index="0" speed="3.65" length="4.67" shape="432.80,478.40 434.00,479.20 434.40,480.00 434.00,480.80 432.80,481.60"/>
    </edge>
    <edge id=":10_0" function="internal">
        <lane id=":10_0_0" index="0" speed="6.51" length="9.03" shape="398.40,487.20 398.05,484.75 397.00,483.00 395.25,481.95 392.80,481.60"/>
    </edge>
    <edge id=":10_1" function="internal">
        <lane id=":10_1_0" index="0" speed="13.89" length="14.40" shape="398.40,487.20 398.40,472.80"/>
    </edge>
    <edge id=":10_2" function="internal">
        <lane id=":10_2_0" index="0" speed="8.00" length="4.07" shape="398.40,487.20 398.95,483.35 399.04,483.20"/>
    </edge>
    <edge id=":10_3" function="internal">
        <lane id=":10_3_0" index="0" speed="3.65" length="1.44" shape="398.40,487.20 399.20,486.00"/>
    </edge>
    <edge id=":10_16" function="internal">
        <lane id=":10_16_0" index="0" speed="8.00" length="10.13" shape="399.04,483.20 400.60,480.60 403.35,478.95 407.20,478.40"/>
    </edge>
    <edge id=":10_17" function="internal">
        <lane id=":10_17_0" index="0" speed="3.65" length="3.23" shape="399.20,486.00 400.00,485.60 400.80,486.00 401.60,487.20"/>
    </edge>
    <edge id=":10_4" function="internal">
        <lane id=":10_4_0" index="0" speed="6.51" length="9.03" shape="407.20,481.60 404.75,481.95 403.00,483.00 401.95,484.75 401.60,487.20"/>
    </edge>
    <edge id=":10_5" function="internal">
        <lane id=":10_5_0" index="0" speed="13.89" length="14.40" shape="407.20,481.60 392.80,481.60"/>
    </edge>
    <edge id=":10_6" function="internal">
        <lane id=":10_6_0" index="0" speed="8.00" length="14.19" shape="407.20,481.60 403.35,481.05 400.60,479.40 398.95,476.65 398.40,472.80"/>
    </edge>
    <edge id=":10_7" function="internal">
        <lane id=":10_7_0" index="0" speed="3.65" length="4.67" shape="407.20,481.60 406.00,480.80 405.60,480.00 406.00,479.20 407.20,478.40"/>
    </edge>
    <edge id=":10_8" function="internal">
        <lane id=":10_8_0" index="0" speed="6.51" length="9.03" shape="401.60,472.80 401.95,475.25 403.00,477.00 404.75,478.05 407.20,478.40"/>
    </edge>
    <edge id=":10_9" function="internal">
        <lane id=":10_9_0" index="0" speed="13.89" length="14.40" shape="401.60,472.80 401.60,487.20"/>
    </edge>
    <edge id=":10_10" function="internal">
        <lane id=":10_10_0" index="0" speed="8.00" length="4.07" shape="401.60,472.80 401.05,476.65 400.96,476.80"/>
    </edge>
    <edge id=":10_11" function="internal">
        <lane id=":10_11_0" index="0" speed="3.65" length="1.44" shape="401.60,472.80 400.80,474.00"/>
    </edge>
    <edge id=":10_18" function="internal">
        <lane id=":10_18_0" index="0" speed="8.00" length="10.13" shape="400.96,476.80 399.40,479.40 396.65,481.05 392.80,481.60"/>
    </edge>
    <edge id=":10_19" function="internal">
        <lane id=":10_19_0" index="0" speed="3.65" length="3.23" shape="400.80,474.00 400.00,474.40 399.20,474.00 398.40,472.80"/>
    </edge>
    <edge id=":10_12" function="internal">
        <lane id=":10_12_0" index="0" speed="6.51" length="9.03" shape="392.80,478.40 395.25,478.05 397.00,477.00 398.05,475.25 398.40,472.80"/>
    </edge>
    <edge id=":10_13" function="internal">
        <lane id=":10_13_0" index="0" speed="13.89" length="14.40" shape="392.80,478.40 407.20,478.40"/>
    </edge>
    <edge id=":10_14" function="internal">
        <lane id=":10_14_0" index="0" speed="8.00" length="14.19" shape="392.80,478.40 396.65,478.95 399.40,480.60 401.05,483.35 401.60,487.20"/>
    </edge>
    <edge id=":10_15" function="internal">
        <lane id=":10_15_0" index="0" speed="3.65" length="4.67" shape="392.80,478.40 394.00,479.20 394.40,480.00 394.00,480.80 392.80,481.60"/>
    </edge>
    <edge id=":1041_0" function="internal">
        <lane id=":1041_0_0" index="0" speed="13.89" length="14.40" shape="558.40,447.20 558.40,432.80"/>
    </edge>
    <edge id=":1041_1" function="internal">
        <lane id=":1041_1_0" index="0" speed="8.00" length="4.07" shape="558.40,447.20 558.95,443.35 559.04,443.20"/>
    </edge>
    <edge id=":1041_2" function="internal">
        <lane id=":1041_2_0" index="0" speed="3.65" length="1.44" shape="558.40,447.20 559.20,446.00"/>
    </edge>
    <edge id=":1041_9" function="internal">
        <lane id=":1041_9_0" index="0" speed="8.00" length="10.13" shape="559.04,443.20 560.60,440.60 563.35,438.95 567.20,438.40"/>
    </edge>
    <edge id=":1041_10" function="internal">
        <lane id=":1041_10_0" index="0" speed="3.65" length="3.23" shape="559.20,446.00 560.00,445.60 560.80,446.00 561.60,447.20"/>
    </edge>
    <edge id=":1041_3" function="internal">
        <lane id=":1041_3_0" index="0" speed="6.51" length="9.03" shape="567.20,441.60 564.75,441.95 563.00,443.00 561.95,444.75 561.60,447.20"/>
    </edge>
    <edge id=":1041_4" function="internal">
        <lane id=":1041_4_0" index="0" speed="8.00" length="14.19" shape="567.20,441.60 563.35,441.05 560.60,439.40 558.95,436.65 558.40,432.80"/>
    </edge>
    <edge id=":1041_5" function="internal">
        <lane id=":1041_5_0" index="0" speed="3.65" length="4.67" shape="567.20,441.60 566.00,440.80 565.60,440.00 566.00,439.20 567.20,438.40"/>
    </edge>
    <edge id=":1041_6" function="internal">
        <lane id=":1041_6_0" index="0" speed="6.51" length="9.03" shape="561.60,432.80 561.95,435.25 563.00,437.00 564.75,438.05 567.20,438.40"/>
    </edge>
    <edge id=":1041_7" function="internal">
        <lane id=":1041_7_0" index="0" speed="13.89" length="14.40" shape="561.60,432.80 561.60,447.20"/>
    </edge>
    <edge id=":1041_8" function="internal">
        <lane id=":1041_8_0" index="0" speed="3.65" length="1.44" shape="561.60,432.80 560.80,434.00"/>
    </edge>
    <edge id=":1041_11" function="internal">
        <lane id=":1041_11_0" index="0" speed="3.65" length="3.23" shape="560.80,434.00 560.00,434.40 559.20,434.00 558.40,432.80"/>
    </edge>
    <edge id=":1043_0" function="internal">
        <lane id=":1043_0_0" index="0" speed="8.54" length="16.33" shape="638.40,491.73 637.77,487.30 635.87,484.13 632.70,482.23 628.27,481.60"/>
    </edge>
    <edge id=":1043_1" function="internal">
        <lane id=":1043_1_0" index="0" speed="13.89" length="20.98" shape="638.40,491.73 637.91,486.40 636.44,481.47 634.00,476.95 630.58,472.84"/>
    </edge>
    <edge id=":1043_2" function="internal">
        <lane id=":1043_2_0" index="0" speed="9.73" length="21.49" shape="638.40,491.73 639.23,485.90 641.73,481.73 645.90,479.23 651.73,478.40"/>
    </edge>
    <edge id=":1043_3" function="internal">
        <lane id=":1043_3_0" index="0" speed="7.42" length="19.31" shape="638.40,491.73 639.09,485.59 641.16,482.79 644.60,483.31 649.42,487.16"/>
    </edge>
    <edge id=":1043_4" function="internal">
        <lane id=":1043_4_0" index="0" speed="3.65" length="4.67" shape="638.40,491.73 639.20,490.53 640.00,490.13 640.80,490.53 641.60,491.73"/>
    </edge>
    <edge id=":1043_5" function="internal">
        <lane id=":1043_5_0" index="0" speed="5.47" length="9.74" shape="647.16,489.42 644.73,487.48 642.99,487.22 641.95,488.63 641.60,491.73"/>
    </edge>
    <edge id=":1043_6" function="internal">
        <lane id=":1043_6_0" index="0" speed="13.89" length="20.98" shape="647.16,489.42 643.05,486.00 638.53,483.56 633.60,482.09 628.27,481.60"/>
    </edge>
    <edge id=":1043_7" function="internal">
        <lane id=":1043_7_0" index="0" speed="13.89" length="23.45" shape="647.16,489.42 630.58,472.84"/>
    </edge>
    <edge id=":1043_8" function="internal">
        <lane id=":1043_8_0" index="0" speed="7.42" length="6.00" shape="647.16,489.42 643.42,484.73"/>
    </edge>
    <edge id=":1043_9" function="internal">
        <lane id=":1043_9_0" index="0" speed="3.65" length="1.44" shape="647.16,489.42 646.88,488.01"/>
    </edge>
    <edge id=":1043_25" function="internal">
        <lane id=":1043_25_0" index="0" speed="7.42" length="13.30" shape="643.42,484.73 643.31,484.60 642.79,481.16 645.59,479.09 651.73,478.40"/>
    </edge>
    <edge id=":1043_26" function="internal">
        <lane id=":1043_26_0" index="0" speed="3.65" length="3.23" shape="646.88,488.01 647.16,487.16 648.01,486.88 649.42,487.16"/>
    </edge>
    <edge id=":1043_10" function="internal">
        <lane id=":1043_10_0" index="0" speed="5.47" length="9.74" shape="651.73,481.60 648.63,481.95 647.22,482.99 647.48,484.73 649.42,487.16"/>
    </edge>
    <edge id=":1043_11" function="internal">
        <lane id=":1043_11_0" index="0" speed="8.54" length="16.33" shape="651.73,481.60 647.30,482.23 644.13,484.13 642.23,487.30 641.60,491.73"/>
    </edge>
    <edge id=":1043_12" function="internal">
        <lane id=":1043_12_0" index="0" speed="13.89" length="23.45" shape="651.73,481.60 628.27,481.60"/>
    </edge>
    <edge id=":1043_13" function="internal">
        <lane id=":1043_13_0" index="0" speed="13.89" length="23.14" shape="651.73,481.60 646.81,480.73 640.60,478.55 634.67,475.70 630.58,472.84"/>
    </edge>
    <edge id=":1043_14" function="internal">
        <lane id=":1043_14_0" index="0" speed="3.65" length="4.67" shape="651.73,481.60 650.53,480.80 650.13,480.00 650.53,479.20 651.73,478.40"/>
    </edge>
    <edge id=":1043_15" function="internal">
        <lane id=":1043_15_0" index="0" speed="13.89" length="20.98" shape="632.84,470.58 636.95,474.00 641.47,476.44 646.40,477.91 651.73,478.40"/>
    </edge>
    <edge id=":1043_16" function="internal">
        <lane id=":1043_16_0" index="0" speed="13.89" length="23.45" shape="632.84,470.58 649.42,487.16"/>
    </edge>
    <edge id=":1043_17" function="internal">
        <lane id=":1043_17_0" index="0" speed="13.89" length="4.09" shape="632.84,470.58 635.18,473.93"/>
    </edge>
    <edge id=":1043_18" function="internal">
        <lane id=":1043_18_0" index="0" speed="7.42" length="6.00" shape="632.84,470.58 636.58,475.27"/>
    </edge>
    <edge id=":1043_19" function="internal">
        <lane id=":1043_19_0" index="0" speed="3.65" length="1.44" shape="632.84,470.58 633.12,471.99"/>
    </edge>
    <edge id=":1043_27" function="internal">
        <lane id=":1043_27_0" index="0" speed="13.89" length="19.06" shape="635.18,473.93 635.70,474.67 638.55,480.60 640.73,486.81 641.60,491.73"/>
    </edge>
    <edge id=":1043_28" function="internal">
        <lane id=":1043_28_0" index="0" speed="7.42" length="13.30" shape="636.58,475.27 636.69,475.40 637.21,478.84 634.41,480.91 628.27,481.60"/>
    </edge>
    <edge id=":1043_29" function="internal">
        <lane id=":1043_29_0" index="0" speed="3.65" length="3.23" shape="633.12,471.99 632.84,472.84 631.99,473.12 630.58,472.84"/>
    </edge>
    <edge id=":1043_20" function="internal">
        <lane id=":1043_20_0" index="0" speed="5.47" length="9.74" shape="628.27,478.40 631.37,478.05 632.78,477.01 632.52,475.27 630.58,472.84"/>
    </edge>
    <edge id=":1043_21" function="internal">
        <lane id=":1043_21_0" index="0" speed="13.89" length="23.45" shape="628.27,478.40 651.73,478.40"/>
    </edge>
    <edge id=":1043_22" function="internal">
        <lane id=":1043_22_0" index="0" speed="13.89" length="23.49" shape="628.27,478.40 634.24,478.95 639.76,480.59 644.82,483.33 649.42,487.16"/>
    </edge>
    <edge id=":1043_23" function="internal">
        <lane id=":1043_23_0" index="0" speed="9.73" length="21.49" shape="628.27,478.40 634.10,479.23 638.27,481.73 640.77,485.90 641.60,491.73"/>
    </edge>
    <edge id=":1043_24" function="internal">
        <lane id=":1043_24_0" index="0" speed="3.65" length="4.67" shape="628.27,478.40 629.47,479.20 629.87,480.00 629.47,480.80 628.27,481.60"/>
    </edge>
    <edge id=":1049_0" function="internal">
        <lane id=":1049_0_0" index="0" speed="6.16" length="10.83" shape="485.35,839.12 482.31,840.15 480.14,839.78 478.83,838.00 478.40,834.82"/>
    </edge>
    <edge id=":1049_1" function="internal">
        <lane id=":1049_1_0" index="0" speed="3.95" length="3.61" shape="481.60,834.82 481.74,835.88 482.18,836.47 482.90,836.60 483.92,836.25"/>
    </edge>
    <edge id=":1067_0" function="internal">
        <lane id=":1067_0_0" index="0" speed="3.65" length="4.67" shape="440.00,761.60 438.80,760.80 438.40,760.00 438.80,759.20 440.00,758.40"/>
    </edge>
    <edge id=":1069_0" function="internal">
        <lane id=":1069_0_0" index="0" speed="6.51" length="9.03" shape="558.40,767.20 558.05,764.75 557.00,763.00 555.25,761.95 552.80,761.60"/>
    </edge>
    <edge id=":1069_1" function="internal">
        <lane id=":1069_1_0" index="0" speed="13.89" length="16.80" shape="558.40,767.20 558.75,763.20 559.70,758.94 561.06,754.78 562.67,751.08"/>
    </edge>
    <edge id=":1069_2" function="internal">
        <lane id=":1069_2_0" index="0" speed="8.42" length="15.82" shape="558.40,767.20 559.07,763.35 561.09,760.60 564.46,758.95 569.18,758.40"/>
    </edge>
    <edge id=":1069_3" function="internal">
        <lane id=":1069_3_0" index="0" speed="3.65" length="4.67" shape="558.40,767.20 559.20,766.00 560.00,765.60 560.80,766.00 561.60,767.20"/>
    </edge>
    <edge id=":1069_4" function="internal">
        <lane id=":1069_4_0" index="0" speed="7.02" length="10.67" shape="569.18,761.60 565.86,761.95 563.49,763.00 562.07,764.75 561.60,767.20"/>
    </edge>
    <edge id=":1069_5" function="internal">
        <lane id=":1069_5_0" index="0" speed="13.89" length="16.38" shape="569.18,761.60 552.80,761.60"/>
    </edge>
    <edge id=":1069_6" function="internal">
        <lane id=":1069_6_0" index="0" speed="7.44" length="4.86" shape="569.18,761.60 564.36,760.94"/>
    </edge>
    <edge id=":1069_7" function="internal">
        <lane id=":1069_7_0" index="0" speed="3.65" length="1.44" shape="569.18,761.60 567.98,760.80"/>
    </edge>
    <edge id=":1069_16" function="internal">
        <lane id=":1069_16_0" index="0" speed="7.44" length="11.54" shape="564.36,760.94 561.67,758.97 561.11,755.68 562.67,751.08"/>
    </edge>
    <edge id=":1069_17" function="internal">
        <lane id=":1069_17_0" index="0" speed="3.65" length="3.23" shape="567.98,760.80 567.58,760.00 567.98,759.20 569.18,758.40"/>
    </edge>
    <edge id=":1069_8" function="internal">
        <lane id=":1069_8_0" index="0" speed="5.74" length="9.18" shape="565.54,752.51 564.66,755.09 564.97,756.93 566.48,758.03 569.18,758.40"/>
    </edge>
    <edge id=":1069_9" function="internal">
        <lane id=":1069_9_0" index="0" speed="13.89" length="15.33" shape="565.54,752.51 563.98,755.99 562.73,759.66 561.90,763.42 561.60,767.20"/>
    </edge>
    <edge id=":1069_10" function="internal">
        <lane id=":1069_10_0" index="0" speed="10.47" length="16.19" shape="565.54,752.51 563.16,755.85 559.85,758.76 556.20,760.82 552.80,761.60"/>
    </edge>
    <edge id=":1069_11" function="internal">
        <lane id=":1069_11_0" index="0" speed="3.65" length="4.67" shape="565.54,752.51 564.28,753.22 563.39,753.22 562.85,752.51 562.67,751.08"/>
    </edge>
    <edge id=":1069_12" function="internal">
        <lane id=":1069_12_0" index="0" speed="9.42" length="12.97" shape="552.80,758.40 555.75,757.94 558.37,756.57 560.68,754.28 562.67,751.08"/>
    </edge>
    <edge id=":1069_13" function="internal">
        <lane id=":1069_13_0" index="0" speed="13.89" length="16.38" shape="552.80,758.40 569.18,758.40"/>
    </edge>
    <edge id=":1069_14" function="internal">
        <lane id=":1069_14_0" index="0" speed="8.00" length="4.07" shape="552.80,758.40 556.65,758.95 556.80,759.04"/>
    </edge>
    <edge id=":1069_15" function="internal">
        <lane id=":1069_15_0" index="0" speed="3.65" length="1.44" shape="552.80,758.40 554.00,759.20"/>
    </edge>
    <edge id=":1069_18" function="internal">
        <lane id=":1069_18_0" index="0" speed="8.00" length="10.13" shape="556.80,759.04 559.40,760.60 561.05,763.35 561.60,767.20"/>
    </edge>
    <edge id=":1069_19" function="internal">
        <lane id=":1069_19_0" index="0" speed="3.65" length="3.23" shape="554.00,759.20 554.40,760.00 554.00,760.80 552.80,761.60"/>
    </edge>
    <edge id=":1076_0" function="internal">
        <lane id=":1076_0_0" index="0" speed="9.42" length="12.97" shape="687.20,681.60 684.25,682.06 681.63,683.43 679.32,685.72 677.33,688.92"/>
    </edge>
    <edge id=":1076_1" function="internal">
        <lane id=":1076_1_0" index="0" speed="13.89" length="16.38" shape="687.20,681.60 670.82,681.60"/>
    </edge>
    <edge id=":1076_2" function="internal">
        <lane id=":1076_2_0" index="0" speed="8.00" length="4.07" shape="687.20,681.60 683.35,681.05 683.20,680.96"/>
    </edge>
    <edge id=":1076_3" function="internal">
        <lane id=":1076_3_0" index="0" speed="3.65" length="1.44" shape="687.20,681.60 686.00,680.80"/>
    </edge>
    <edge id=":1076_16" function="internal">
        <lane id=":1076_16_0" index="0" speed="8.00" length="10.13" shape="683.20,680.96 680.60,679.40 678.95,676.65 678.40,672.80"/>
    </edge>
    <edge id=":1076_17" function="internal">
        <lane id=":1076_17_0" index="0" speed="3.65" length="3.23" shape="686.00,680.80 685.60,680.00 686.00,679.20 687.20,678.40"/>
    </edge>
    <edge id=":1076_4" function="internal">
        <lane id=":1076_4_0" index="0" speed="6.51" length="9.03" shape="681.60,672.80 681.95,675.25 683.00,677.00 684.75,678.05 687.20,678.40"/>
    </edge>
    <edge id=":1076_5" function="internal">
        <lane id=":1076_5_0" index="0" speed="13.89" length="16.80" shape="681.60,672.80 681.25,676.80 680.30,681.06 678.94,685.22 677.33,688.92"/>
    </edge>
    <edge id=":1076_6" function="internal">
        <lane id=":1076_6_0" index="0" speed="8.42" length="15.82" shape="681.60,672.80 680.93,676.65 678.91,679.40 675.54,681.05 670.82,681.60"/>
    </edge>
    <edge id=":1076_7" function="internal">
        <lane id=":1076_7_0" index="0" speed="3.65" length="4.67" shape="681.60,672.80 680.80,674.00 680.00,674.40 679.20,674.00 678.40,672.80"/>
    </edge>
    <edge id=":1076_8" function="internal">
        <lane id=":1076_8_0" index="0" speed="7.02" length="10.67" shape="670.82,678.40 674.14,678.05 676.51,677.00 677.93,675.25 678.40,672.80"/>
    </edge>
    <edge id=":1076_9" function="internal">
        <lane id=":1076_9_0" index="0" speed="13.89" length="16.38" shape="670.82,678.40 687.20,678.40"/>
    </edge>
    <edge id=":1076_10" function="internal">
        <lane id=":1076_10_0" index="0" speed="7.44" length="4.86" shape="670.82,678.40 675.64,679.06"/>
    </edge>
    <edge id=":1076_11" function="internal">
        <lane id=":1076_11_0" index="0" speed="3.65" length="1.44" shape="670.82,678.40 672.02,679.20"/>
    </edge>
    <edge id=":1076_18" function="internal">
        <lane id=":1076_18_0" index="0" speed="7.44" length="11.54" shape="675.64,679.06 678.33,681.03 678.89,684.32 677.33,688.92"/>
    </edge>
    <edge id=":1076_19" function="internal">
        <lane id=":1076_19_0" index="0" speed="3.65" length="3.23" shape="672.02,679.20 672.42,680.00 672.02,680.80 670.82,681.60"/>
    </edge>
    <edge id=":1076_12" function="internal">
        <lane id=":1076_12_0" index="0" speed="5.74" length="9.18" shape="674.46,687.49 675.34,684.91 675.03,683.07 673.52,681.97 670.82,681.60"/>
    </edge>
    <edge id=":1076_13" function="internal">
        <lane id=":1076_13_0" index="0" speed="13.89" length="15.33" shape="674.46,687.49 676.02,684.01 677.27,680.34 678.10,676.58 678.40,672.80"/>
    </edge>
    <edge id=":1076_14" function="internal">
        <lane id=":1076_14_0" index="0" speed="10.47" length="16.19" shape="674.46,687.49 676.84,684.15 680.15,681.24 683.80,679.18 687.20,678.40"/>
    </edge>
    <edge id=":1076_15" function="internal">
        <lane id=":1076_15_0" index="0" speed="3.65" length="4.67" shape="674.46,687.49 675.72,686.78 676.61,686.78 677.15,687.49 677.33,688.92"/>
    </edge>
    <edge id=":1199_0" function="internal">
        <lane id=":1199_0_0" index="0" speed="13.89" length="12.24" shape="567.20,801.60 563.87,801.68 561.09,802.01 558.40,802.77 555.37,804.10"/>
    </edge>
    <edge id=":1199_1" function="internal">
        <lane id=":1199_1_0" index="0" speed="8.00" length="3.77" shape="567.20,801.60 563.47,801.07"/>
    </edge>
    <edge id=":1199_2" function="internal">
        <lane id=":1199_2_0" index="0" speed="3.65" length="1.44" shape="567.20,801.60 566.00,800.80"/>
    </edge>
    <edge id=":1199_9" function="internal">
        <lane id=":1199_9_0" index="0" speed="8.00" length="10.42" shape="563.47,801.07 563.35,801.05 560.60,799.40 558.95,796.65 558.40,792.80"/>
    </edge>
    <edge id=":1199_10" function="internal">
        <lane id=":1199_10_0" index="0" speed="3.65" length="3.23" shape="566.00,800.80 565.60,800.00 566.00,799.20 567.20,798.40"/>
    </edge>
    <edge id=":1199_3" function="internal">
        <lane id=":1199_3_0" index="0" speed="6.51" length="9.03" shape="561.60,792.80 561.95,795.25 563.00,797.00 564.75,798.05 567.20,798.40"/>
    </edge>
    <edge id=":1199_4" function="internal">
        <lane id=":1199_4_0" index="0" speed="9.65" length="13.64" shape="561.60,792.80 561.21,796.58 560.04,799.72 558.10,802.23 555.37,804.10"/>
    </edge>
    <edge id=":1199_5" function="internal">
        <lane id=":1199_5_0" index="0" speed="3.65" length="4.67" shape="561.60,792.80 560.80,794.00 560.00,794.40 559.20,794.00 558.40,792.80"/>
    </edge>
    <edge id=":1199_6" function="internal">
        <lane id=":1199_6_0" index="0" speed="8.37" length="10.08" shape="553.94,801.24 555.89,799.88 557.28,798.02 558.12,795.66 558.40,792.80"/>
    </edge>
    <edge id=":1199_7" function="internal">
        <lane id=":1199_7_0" index="0" speed="13.89" length="13.70" shape="553.94,801.24 557.19,799.85 560.37,798.98 563.65,798.53 567.20,798.40"/>
    </edge>
    <edge id=":1199_8" function="internal">
        <lane id=":1199_8_0" index="0" speed="3.65" length="1.44" shape="553.94,801.24 555.37,801.42"/>
    </edge>
    <edge id=":1199_11" function="internal">
        <lane id=":1199_11_0" index="0" speed="3.65" length="3.23" shape="555.37,801.42 556.08,801.96 556.08,802.85 555.37,804.10"/>
    </edge>
    <edge id=":1203_0" function="internal">
        <lane id=":1203_0_0" index="0" speed="13.89" length="18.58" shape="649.18,761.60 644.96,762.09 640.84,763.56 636.79,766.00 632.84,769.42"/>
    </edge>
    <edge id=":1203_1" function="internal">
        <lane id=":1203_1_0" index="0" speed="13.89" length="20.90" shape="649.18,761.60 628.27,761.60"/>
    </edge>
    <edge id=":1203_2" function="internal">
        <lane id=":1203_2_0" index="0" speed="7.44" length="4.86" shape="649.18,761.60 644.36,760.94"/>
    </edge>
    <edge id=":1203_3" function="internal">
        <lane id=":1203_3_0" index="0" speed="3.65" length="1.44" shape="649.18,761.60 647.98,760.80"/>
    </edge>
    <edge id=":1203_16" function="internal">
        <lane id=":1203_16_0" index="0" speed="7.44" length="11.54" shape="644.36,760.94 641.67,758.97 641.11,755.68 642.67,751.08"/>
    </edge>
    <edge id=":1203_17" function="internal">
        <lane id=":1203_17_0" index="0" speed="3.65" length="3.23" shape="647.98,760.80 647.58,760.00 647.98,759.20 649.18,758.40"/>
    </edge>
    <edge id=":1203_4" function="internal">
        <lane id=":1203_4_0" index="0" speed="5.74" length="9.18" shape="645.54,752.51 644.66,755.09 644.97,756.93 646.48,758.03 649.18,758.40"/>
    </edge>
    <edge id=":1203_5" function="internal">
        <lane id=":1203_5_0" index="0" speed="13.89" length="21.20" shape="645.54,752.51 643.11,756.54 639.68,761.32 636.00,765.92 632.84,769.42"/>
    </edge>
    <edge id=":1203_6" function="internal">
        <lane id=":1203_6_0" index="0" speed="11.65" length="20.18" shape="645.54,752.51 642.77,755.85 638.44,758.76 633.33,760.82 628.27,761.60"/>
    </edge>
    <edge id=":1203_7" function="internal">
        <lane id=":1203_7_0" index="0" speed="3.65" length="4.67" shape="645.54,752.51 644.28,753.22 643.39,753.22 642.85,752.51 642.67,751.08"/>
    </edge>
    <edge id=":1203_8" function="internal">
        <lane id=":1203_8_0" index="0" speed="10.74" length="17.04" shape="628.27,758.40 633.20,757.94 637.24,756.57 640.40,754.28 642.67,751.08"/>
    </edge>
    <edge id=":1203_9" function="internal">
        <lane id=":1203_9_0" index="0" speed="13.89" length="20.90" shape="628.27,758.40 649.18,758.40"/>
    </edge>
    <edge id=":1203_10" function="internal">
        <lane id=":1203_10_0" index="0" speed="7.42" length="6.00" shape="628.27,758.40 634.24,759.07"/>
    </edge>
    <edge id=":1203_11" function="internal">
        <lane id=":1203_11_0" index="0" speed="3.65" length="1.44" shape="628.27,758.40 629.47,759.20"/>
    </edge>
    <edge id=":1203_18" function="internal">
        <lane id=":1203_18_0" index="0" speed="7.42" length="13.30" shape="634.24,759.07 634.41,759.09 637.21,761.16 636.69,764.60 632.84,769.42"/>
    </edge>
    <edge id=":1203_19" function="internal">
        <lane id=":1203_19_0" index="0" speed="3.65" length="3.23" shape="629.47,759.20 629.87,760.00 629.47,760.80 628.27,761.60"/>
    </edge>
    <edge id=":1203_12" function="internal">
        <lane id=":1203_12_0" index="0" speed="5.47" length="9.74" shape="630.58,767.16 632.52,764.73 632.78,762.99 631.37,761.95 628.27,761.60"/>
    </edge>
    <edge id=":1203_13" function="internal">
        <lane id=":1203_13_0" index="0" speed="13.89" length="20.17" shape="630.58,767.16 633.64,763.78 637.11,759.47 640.34,754.98 642.67,751.08"/>
    </edge>