<?xml version="1.0" encoding="UTF-8"?>

<!-- generated on 2023-12-21 09:48:05.467316 by randomTrips.py v1_19_0+0143-4ff360ee235
<configuration>
    <net-file value="mediumK1.net.xml"/>
    <output-trip-file value="mediumK1.xml"/>
    <route-file value="mediumK1.rou.xml"/>
    <trip-attributes value="maxSpeed=&quot;20.0&quot;"/>
    <vehicle-class value="bicycle"/>
    <end value="50.0"/>
</configuration>
-->

<!-- generated on 2023-12-21 09:48:05 by Eclipse SUMO duarouter Version v1_19_0+0143-4ff360ee235
<configuration xmlns:xsi="http://www.w3.org/2001/XMLSchema-instance" xsi:noNamespaceSchemaLocation="http://sumo.dlr.de/xsd/duarouterConfiguration.xsd">

    <input>
        <net-file value="mediumK1.net.xml"/>
        <route-files value="mediumK1.xml"/>
    </input>

    <output>
        <output-file value="mediumK1.rou.xml"/>
        <alternatives-output value="NUL"/>
    </output>

    <time>
        <begin value="0"/>
        <end value="50.0"/>
    </time>

    <report>
        <no-warnings value="true"/>
        <ignore-errors value="true"/>
        <no-step-log value="true"/>
    </report>

</configuration>
-->

<routes xmlns:xsi="http://www.w3.org/2001/XMLSchema-instance" xsi:noNamespaceSchemaLocation="http://sumo.dlr.de/xsd/routes_file.xsd">
    <vType id="bicycle" maxSpeed="20.00" vClass="bicycle"/>
    <vehicle id="0" type="bicycle" depart="0.00">
        <route edges="18701 -18705 -14815 -14465 -14050 -12630 -11677 -10767 10757 -9379 -6346 -6102 4189 4484 -25871 -25860 -14472 14473 32954 -32956 12899 -12893 -11903"/>
    </vehicle>
    <vehicle id="1" type="bicycle" depart="1.00">
        <route edges="-33805 33805 -8526 -7960 -7085 7089 -10392 -10090 10084 -13973 -15162 -47997 -46436 46444 47999 -32973 19791 27060 27684 49682 -49683 -31069"/>
    </vehicle>
    <vehicle id="2" type="bicycle" depart="2.00">
        <route edges="29962 -29962 29964 -38229 38230 -7267 -6880 -6528 -6524 -13291 -12250 8226 8690 -3429 -3213 -3116 -422 402 435 482 530 2845 4133 4317 14505 14884 -15136 14489 14847 27060 27674"/>
    </vehicle>
    <vehicle id="3" type="bicycle" depart="3.00">
        <route edges="4484 -25871 -24952 -3779 -3455 -3131 -2952 -2890 -1418 -1391 -1352 1350 -99 -89 -62 52 72 -230 273 412 438 487 535 1224 1288 1453 1620 -1370 1370 -1620"/>
    </vehicle>
    <vehicle id="4" type="bicycle" depart="4.00">
        <route edges="-47995 47987 -47998 47996 -31590 -14895 -14635 14271 -12021 -4319 -4133 -2845 -530 -482 460 3208 -3420 -1228"/>
    </vehicle>
    <vehicle id="5" type="bicycle" depart="5.00">
        <route edges="-29357 -18699 30835 -31054 -20019 -12658 12626 19488 20001 20933 24832 35419 36479 -7794 7806 31187 -31758 31770 37167 -39060 -12202 12202"/>
    </vehicle>
    <vehicle id="6" type="bicycle" depart="6.00">
        <route edges="-12021 -4319 -4133 -2845 -530 526 -1027 1033 1093 1215 1303 8377 8838 9515 9977 10360 33783 -28759"/>
    </vehicle>
    <vehicle id="7" type="bicycle" depart="7.00">
        <route edges="1990 6506 7653 -7126 7127 -7085 7089 -10392 -10090 10084 -13973 -15162 -47997 -46436 46444 47999 -32973 19791 -14847 14847"/>
    </vehicle>
    <vehicle id="8" type="bicycle" depart="8.00">
        <route edges="-2950 -2890 -1418 -1391 -1352 1350 -99 -89 -62 52 72 -230 273 412 438 485 1791"/>
    </vehicle>
    <vehicle id="9" type="bicycle" depart="9.00">
        <route edges="3651 -3651 -3431 -3213 -3116 -422 -273 230 -72 -3 5 216 4122 5561 10348 -10348"/>
    </vehicle>
    <vehicle id="10" type="bicycle" depart="10.00">
        <route edges="36101 -36101 -35003 -34008 -33261 22445 22447 -15711 -15333 11213 12202 39060 -37167 -31770 31758 -31182 7790 7794 -36479 -35419 -24832 -20933 20937 21722 -22894 29535"/>
    </vehicle>
    <vehicle id="11" type="bicycle" depart="11.00">
        <route edges="-40158 -39225 30691 -17784 -16094 -15473 -15469 -9848 -7402 -6906 -4486 -4189 6102 -6343 4481 4918 6676 9381 11659 12592 -5555 5232 -1764 1768 9839 11544 12190 21511 22441 -9342 22437 -22437"/>
    </vehicle>
    <vehicle id="12" type="bicycle" depart="12.00">
        <route edges="6526 -6074 6076 -9111 -8569 -7150 -4166"/>
    </vehicle>
    <vehicle id="13" type="bicycle" depart="13.00">
        <route edges="-16397 16398 -16390 14505 14884 -15136 14489 14849 17809 -16998 16966 -16966"/>
    </vehicle>
    <vehicle id="14" type="bicycle" depart="14.00">
        <route edges="41115 41547 41986 -31115 -30619 -7089 7085 -7127 -4871 -1942 -1648 -1453 -1288 -1224 -535 -487 -438 -412 -273 230 -72 -52 62 514 2174 -2229 -1461 1471 1764 -5232 5555 -12592 12604 13540 19488"/>
    </vehicle>
    <vehicle id="15" type="bicycle" depart="15.00">
        <route edges="36150 -37191 37192 -31058 -25862 -14472 14473 -10360 -9977 -9515 -8838 -8377 -1303 -1215 -1093 -1033 1027 -526 -482 460 3208"/>
    </vehicle>
    <vehicle id="16" type="bicycle" depart="16.00">
        <route edges="1061 1228 3420 -3209 -3116 -422 -273 230 -72 -52 62 89 99 -1350 1352 1391 1418 2890 2952 3131 3449 3672 4189 4486 6906 7404"/>
    </vehicle>
    <vehicle id="17" type="bicycle" depart="17.00">
        <route edges="-42724 42722 -29972 -29030 -16649 -22447 -22445 -14430 -14023 -6074 6076 -7155 -6870 -2206 -2149 -1226 -1061 -538 -495 485 1791 8497 13133 -12154 13144 15167"/>
    </vehicle>
    <vehicle id="18" type="bicycle" depart="18.00">
        <route edges="38513 -38513 -34151 -32597 -31315 -31308 -31306 -30686 -18571 -17775 -17767 -9854 9489 9853 -14053 -13613 -11673 11677 12626 19488 20001 20941"/>
    </vehicle>
    <vehicle id="19" type="bicycle" depart="19.00">
        <route edges="41788 -42404 -39088 -31182 8803 9356 -3658 -3655 -1764 -1471 1461 2229 -2174 -514 -62 52 72 80 241 400 435 482 530 2845 4133 4317 16391 17126"/>
    </vehicle>
    <vehicle id="20" type="bicycle" depart="20.00">
        <route edges="26386 -26385 -25547 -23139 -22112 -9676 -8575 -7154 7150 8569 9111 -6076 6074 -6526 -6184 6190 6528 -12190 -11544 -9839 -1768 1764 -5232 5555 -12592 12604 13540 -12626 -11677 11673 13613 14053 -9853 9853 -14053 -13613"/>
    </vehicle>
    <vehicle id="21" type="bicycle" depart="21.00">
        <route edges="-30139 -29300 -28706 14807 -14467 -14050 -19997 20001 20933 24832 35419 36479 -7794 7806 31187 -31758 31770 37167 -39060 -12202 -11213 15333 15711 -22447 -22445 33261 34008 35003 36101 16572 -37011 -33977 -33241 37013 -37009"/>
    </vehicle>
    <vehicle id="22" type="bicycle" depart="22.00">
        <route edges="-15498 14842 14847 -19791 32973 -47999 -46444 46436 47996 -31590"/>
    </vehicle>
    <vehicle id="23" type="bicycle" depart="23.00">
        <route edges="-17126 -16355 -14864 14884 -15136 14489 14849 29551 35539 -35539"/>
    </vehicle>
    <vehicle id="24" type="bicycle" depart="24.00">
        <route edges="1840 10356 -9975 8377 8838 9515 9977 10360 -14473 14472 25862 37454 -38388 -37190 -17777 -16088 -15473 -15469 16781 17775 18585 30675 31201 -34149 45819 -44409"/>
    </vehicle>
    <vehicle id="25" type="bicycle" depart="25.00">
        <route edges="-42267 -21537 -6548 6528 6880 7265 -32554 -32550 -9719 -9368 -8803 7790 7794 -36479 -35419 -24832 -20933 20937 21722 -22894 29535 -29533"/>
    </vehicle>
    <vehicle id="26" type="bicycle" depart="26.00">
        <route edges="-33261 -14430 -14023 -5822 -5392 -5191 -4888 4902 5201 -5376 5376"/>
    </vehicle>
    <vehicle id="27" type="bicycle" depart="27.00">
        <route edges="19813 7963 -7960 -7127 -4871 -1942 -1648 -1453 -1288 -1224 -535 -487 -438 -412 -273 230 -72 -52 62 514 2174 -2229 -1461 1471 1764 -5232 5555 -12592 12604 13546 19968 19997"/>
    </vehicle>
    <vehicle id="28" type="bicycle" depart="28.00">
        <route edges="-23109 -22112 -9566 -9102 -7136 -6863 -1952 -538 -495 -438 -460 482 526 -1027 1033 1093 1215 1303 8377 8838 9515 9977 10360 -14473 14472 25862 37454 -38388 -37190 -16790 -16090 16094 17784 25836 26798 31900"/>
    </vehicle>
    <vehicle id="29" type="bicycle" depart="29.00">
        <route edges="-22440 -21511 -6528 -6190 6184 6526 -6074 6076 -7155 -6870 4166 7154 8575 15692 16588 19169 24469 34854 35873 -48436 -46739"/>
    </vehicle>
    <vehicle id="30" type="bicycle" depart="30.00">
        <route edges="9381 11659 12592 -5555 5232 -1764 1768 9839 11544 12190 21511 22441"/>
    </vehicle>
    <vehicle id="31" type="bicycle" depart="31.00">
        <route edges="12617 -12617 -10755 20931 -29193 -28498 28498"/>
    </vehicle>
    <vehicle id="32" type="bicycle" depart="32.00">
        <route edges="40604 -40604 -31714 -31123 -30622 -10418 -10090 -9537 -8863 -1376 1370 -1620 1622 3632 -11095 -10440 -8068 -7130 7134 -7140 7150 8569 9111 -6076 6074 14023 14430 22445 22447 -15711 -15333 11213 12202 34860 35979"/>
    </vehicle>
    <vehicle id="33" type="bicycle" depart="33.00">
        <route edges="-30249 -29471 -28730 -20941 -20001 -19968 -13546 -12604"/>
    </vehicle>
    <vehicle id="34" type="bicycle" depart="34.00">
        <route edges="-37445 -36475 -30129 -29300 -28702 -13555 13559 30835 -31054 -20019 -12658 12626 -13540 -12604 12592 -5555 5232 -1764 1768 9839 11544 12190 -6528 -6524 -13291 -12250 -3939 -3651 -3431"/>
    </vehicle>
    <vehicle id="35" type="bicycle" depart="35.00">
        <route edges="-2876 -2824 -1418 -1391 -1352 1350 985 1101 1471 1768 9839 11544 12190 -6528 -6190 6184 6526 -5822 5822"/>
    </vehicle>
    <vehicle id="36" type="bicycle" depart="36.00">
        <route edges="43057 -40158 -39225 30691 -17784 -16094 -15473 -15469 -9848 -7402 -6906 -4486 -4189 6102 -6343 4481 4918 6676 9381 11659 12592 -5555 5232 -1764 1768 9839 11544 12190 21511 22441 25800 39881 -39881"/>
    </vehicle>
    <vehicle id="37" type="bicycle" depart="37.00">
        <route edges="20587 -20587 -9691 10124 11105 -5376 3420 -3208 -460 482 526 -1027 1033 1093 1215 1303 8377 8838 9515 9977 10372 18866 28759 43415 47833 49553 50802 -49559"/>
    </vehicle>
    <vehicle id="38" type="bicycle" depart="38.00">
        <route edges="4871 -4871 -1986 1985 7983 8878 -17606 -16588 -15692 -8575"/>
    </vehicle>
    <vehicle id="39" type="bicycle" depart="39.00">
        <route edges="-33122 33124 -33242 -17598 -16578 -15692 -8575 -7154 -4166 -2206 -2149 -1226 1228 3420 -3208 -460 482 530 2845 4133 4317 14505 14884 -15136 14489 14849 29551 35539 -35547 -32947"/>
    </vehicle>
    <vehicle id="40" type="bicycle" depart="40.00">
        <route edges="12899 16133 16147 -9975 -1248 -1086 202 -15 3 -52 62 514 2174 -2229 -1461 1471 1768 9839 11544 12190 6880 7267 -38230 38229 -29964 29962 33988 34877 -34877 -33988"/>
    </vehicle>
    <vehicle id="41" type="bicycle" depart="41.00">
        <route edges="14508 -15549 -15160 31590 -47996 47998 -47987 47989"/>
    </vehicle>
    <vehicle id="42" type="bicycle" depart="42.00">
        <route edges="-45026 -45021 -18915 18921 19791 -14847 -14842 15498 -14184 -13732 -12895 -12881 12893 -12899 32956 -32954 -14473 14472 25862 37454 -38388 -37190 -16790 -16090 16094 17784 -30691"/>
    </vehicle>
    <vehicle id="43" type="bicycle" depart="43.00">
        <route edges="985 1101 1461 126"/>
    </vehicle>
    <vehicle id="44" type="bicycle" depart="44.00">
        <route edges="-16355 16355 -16391 -4317 -4133 3477 -3261 -3160 532 535 1224 1288 1453 1620 -1370"/>
    </vehicle>
    <vehicle id="45" type="bicycle" depart="45.00">
        <route edges="-17777 17777 37190 38388 -37454 -25862 -14472 14473 -10360 -9977 -9515 -8838 -8377 -1303 -1215 -1093 -1033 -978 -229 273 422 3116 3213 3431 4471 4902 5207 21557"/>
    </vehicle>
    <vehicle id="46" type="bicycle" depart="46.00">
        <route edges="34363 -34363 -33528 -41371 -40274 -33541 -13555 13559 30835 -31054 -20019 -12658 12626 -13540 -12604 -11659 -9503 -5882 -5856"/>
    </vehicle>
    <vehicle id="47" type="bicycle" depart="47.00">
        <route edges="-1453 -1288 -1224 -536 538 1061 1226 2149 2206 6870 7155 -6076 6074 14023 14430 22445 22447 16649 29030 29964 -32529 32531 38126 -49178 -47243"/>
    </vehicle>
    <vehicle id="48" type="bicycle" depart="48.00">
        <route edges="9825 -9825 -5522 -5212 -3658 -3655 -1764 -1471 1461 2229 -2174 -514 -62 52 72 80 241 400 435 482 530 7078 19799 -19803 14267 -13956 13958"/>
    </vehicle>
    <vehicle id="49" type="bicycle" depart="49.00">
        <route edges="7265 -7265 -6880 -6528 -6524 -13291 -12250 8226 8690 -3429 -3213 -3116 -422 412 438 485 3160 4140 4336"/>
    </vehicle>
</routes>
