<?xml version="1.0" encoding="UTF-8"?>

<!-- generated on 2023-12-21 10:52:19.427629 by randomTrips.py v1_19_0+0143-4ff360ee235
<configuration>
    <net-file value="mediumLargeK4.net.xml"/>
    <output-trip-file value="mediumLargeK4.xml"/>
    <route-file value="mediumLargeK4.rou.xml"/>
    <trip-attributes value="maxSpeed=&quot;20.0&quot;"/>
    <vehicle-class value="bicycle"/>
    <end value="50.0"/>
</configuration>
-->

<!-- generated on 2023-12-21 10:52:18 by Eclipse SUMO duarouter Version v1_19_0+0143-4ff360ee235
<configuration xmlns:xsi="http://www.w3.org/2001/XMLSchema-instance" xsi:noNamespaceSchemaLocation="http://sumo.dlr.de/xsd/duarouterConfiguration.xsd">

    <input>
        <net-file value="mediumLargeK4.net.xml"/>
        <route-files value="mediumLargeK4.xml"/>
    </input>

    <output>
        <output-file value="mediumLargeK4.rou.xml"/>
        <alternatives-output value="NUL"/>
    </output>

    <time>
        <begin value="0"/>
        <end value="50.0"/>
    </time>

    <report>
        <no-warnings value="true"/>
        <ignore-errors value="true"/>
        <no-step-log value="true"/>
    </report>

</configuration>
-->

<routes xmlns:xsi="http://www.w3.org/2001/XMLSchema-instance" xsi:noNamespaceSchemaLocation="http://sumo.dlr.de/xsd/routes_file.xsd">
    <vType id="bicycle" maxSpeed="20.00" vClass="bicycle"/>
    <vehicle id="0" type="bicycle" depart="0.00">
        <route edges="161278 -161278 -152773 -151074 -121316 -121314 -118025 -118023 -114928 -60617 60616 -51393 -43928 -42724 42722 -29972 -29030 -16649 -22447 -22445 -14430 -14023 -5822 -5392 -5191 -4888 4902 5193 10467 -11326"/>
    </vehicle>
    <vehicle id="1" type="bicycle" depart="1.00">
        <route edges="-233 208 273 412 438 487 535 1224 1288 1453 1648 1942 4871 7127 7960 8502 33086 -33104 33817 63314 -91780 -91776 -83883 -82845 -63209 57876 60377 -61829 61845 95435 -120659 120661 122589 -137214 137228 145987 147222 -153891 -150382 150378 151994 171876 173363 212955 -212950"/>
    </vehicle>
    <vehicle id="2" type="bicycle" depart="2.00">
        <route edges="210230 -208369 -185886 -184338 203988 -201802 -149814 -118366 -116980 -115502 -114450 -113520 -113511 -107915 -106338 106337 107797 109613 -159362 -157308 -126071 126072 -94062 94060 96094 126068 128561 -136134 -134442 -132409 -131250 90773 92259 -83495 83503 -83607 83606 -68084 68082 78022 79385 49814 59500 60208 61526 88825 -93365 -89057 93363 -93367 87670 -75579 -74455 77165 78162 79631 81536 156753 158710 -137079 -116183 -98384 -95428 -91790 130460 132444 132450 134587 136193 137228 145987 147222 -153891 -150382 150378 152012 192471"/>
    </vehicle>
    <vehicle id="3" type="bicycle" depart="3.00">
        <route edges="49888 51000 -52726 -36789 36790 -27931 -8502 -7960 -7085 7089 30619 -30620 30622 31123 31716 41149 57307 -57166 -14899 -14635 14271 -12021 -4319 4317 14505 -14505"/>
    </vehicle>
    <vehicle id="4" type="bicycle" depart="4.00">
        <route edges="-57620 57628 73409 -74745 -66156 57980 57985 68666 -68771 -62299 53318 54385 63560 -64191 64193 65268 71717 73277 74870 84781 85821 128585 -136134 -134442 -132409 -130201 -127715 -122550 122546 155641 171723 171732 183789 -192136 192135 194493 237373 -237150 -115583"/>
    </vehicle>
    <vehicle id="5" type="bicycle" depart="5.00">
        <route edges="-204009 204009 -225789 225795 228381 -180300 -178738 -159374 -157312 -126074 126072 -94062 94060 96094 126068 128561 -136134 -134442 -132409 -131250 90773 92259 -83495 83503 -83607 83606 -68084 68082 -42526 -41857 -36624 35547 -35539 -30576 46401 47941 63009 63011 -64791 64801 71023 110197 111373"/>
    </vehicle>
    <vehicle id="6" type="bicycle" depart="6.00">
        <route edges="-113279 113279 -112629 -70407 -62744 -61264 -60069 -56147 56141 -52203 52199 -53325 70210 -68782 68806 70213 -67601 -66387 66375 -57635 -56867 56861 57622 78898 -120097 120101 121848 129541 131728 133655 119728 -109651 -107925 -106336 106328 -107916 107917 -119967 -118352 -162269 162271 -199124 199125 -199125"/>
    </vehicle>
    <vehicle id="7" type="bicycle" depart="7.00">
        <route edges="166284 -166284 -137622 -136246 114900 -114124 -105505 74636 -68556 -67246 68563 -95492 -75872 58549 59174 -80234 -78573 -77483 -76001 -74697 74693 -84259 -83116 91949 -90507 82012 -80228 -80223 -60616 60617 114928 118023 118025 121314 121322 151076 -149626 149622 -147575 -133223 133223"/>
    </vehicle>
    <vehicle id="8" type="bicycle" depart="8.00">
        <route edges="-205005 205005 -192514 -187229 -185424 185428 187237 189629 -170199 170201 -169922 168040 -137244 137220 147204 148681 152134"/>
    </vehicle>
    <vehicle id="9" type="bicycle" depart="9.00">
        <route edges="254410 240015 251468 -274342 -272376 -272355 -269617 -228767 -183313 -175448 175446 191170 -191175 -182069 182071 184579 155048 -153359 -151575 -149998 -139968 139970 155291 157691 160040 162696 167519 167524 -154732 -151245 -149630 -149622 149626 -151076 -121322 -121314 -119578 119580 121309 -121330 123403 125784 -95618 95608 103516 -103516"/>
    </vehicle>
    <vehicle id="10" type="bicycle" depart="10.00">
        <route edges="251414 -254285 254287 256217 258569 264113 269142 272004 -269255 -266823 -261147 -256210 223824 -223369 -167195 -164965 -109633 -106317 -85932 -84799 -83221 83207 92419 -92420 70185 -62297 -39223 -38513 -34151 -32597 -31315 -31308 -31306 -30686 -18571 18577 -21695 -20913 -19310 -18694 28702 29300 30139 40826 41489 51557 55375 56033 70377 71965 67382 68618 70023 90756 92238 125931 128485 131010 133223 147575 149630 151245 154734 157046 236338 239381 -280225 -277844 -203274 203264"/>
    </vehicle>
    <vehicle id="11" type="bicycle" depart="11.00">
        <route edges="-271886 -248085 248071 -251147 -216268 -214161 214163 -216496 -214287 -212201 -210435 -208430 -208427 218699 221227 223824 225795 228381 -180300 -178738 -159374 -157312 -126074 126072 -94062 94060 96094 126068 128561 -136134 -134442 -132409 -131250 90773 92259 -83495 83503 -83607 83606 -68084 68082 78022 79385 49814 59500 60208 61526 88825 -93365 -89057 -86413 -85218 86420 -86410 83867 85194 86405 87655 110045 111243 163147 165736 179469 -179469"/>
    </vehicle>
    <vehicle id="12" type="bicycle" depart="12.00">
        <route edges="80266 -80262 -62263 -58803 -41778 -37167 -31770 31758 -31182"/>
    </vehicle>
    <vehicle id="13" type="bicycle" depart="13.00">
        <route edges="-145815 -136148 -134450 -132418 -94995 94987 -85214 85210 86407 -69494 69490 79620 79631 87673 89048 -60575 -56535 56537 60577 -31115 -30619 -7089 7085 -7127 7126 7659 35692 35693 17476 -16584 -15692 15325 -15321 33133 -32523 -14976"/>
    </vehicle>
    <vehicle id="14" type="bicycle" depart="14.00">
        <route edges="281532 -279494 -276878 -275209 -271267 -263256 -259770 -243714 -243246 -227566 -207241 -205007 -202931 -171855 -145857 -137075 -136164 -134465 -132434 -130441 -116177 -93390 -91782 -64914 -64911 -52585 -33817 33104 -33086 -8502 -7960 -7127 -4871 -1942 -1648 -1453 -1288 -1224 -535 -487 -438 -460 482 526 -1027 1033 1093 1215 1303 8377 8838 9515 9977 10360 -14473 14472 25862 37454 -38388 -37190 -16790 -16090 16094 17784 25836 26798 28353 29174 33491 39216 39223 62297 -70185 92426 96328 118221 -133655 133663 135742 136846 -131588 131596 153056 154898 159636"/>
    </vehicle>
    <vehicle id="15" type="bicycle" depart="15.00">
        <route edges="252428 255223 -246122 -243114 -197685 197683 -204848 -185253 -163149 -111243 -110045 -87655 -86405 -85194 -83867 86410 -86420 85218 86413 89057 93365 -88825 -61526 -60208 -59500 -49814 -79385 -78022 -68082 68084 -83606 83607 -83503 83495 -92259 -90773 131250 132409 134442 136134 -128561 -126068 -96094 -94060 94062 121495 123665 126074 157312 159374 178738 180300 -228381 -225795 -223824 -221227 -218699 208427 -206339 206335 210434 212203 214291 218725"/>
    </vehicle>
    <vehicle id="16" type="bicycle" depart="16.00">
        <route edges="1093 1215 1303 8377 8838 9515 9977 10360 -14473 14472 25860 25871 -4484 -4189 6102 6348 6683 6909 9856 20931 -21694 -20913 -19310 -18694 28702 29300 30129 42503 51559 52199 65529 66398 85988 86976 88648"/>
    </vehicle>
    <vehicle id="17" type="bicycle" depart="17.00">
        <route edges="-36092 -22437 -8686 -15707 15727 29030 29962 51387 78566 80228 82024 83137 91971 93669 95608 97321 132724 -136306 136305"/>
    </vehicle>
    <vehicle id="18" type="bicycle" depart="18.00">
        <route edges="268081 -225360 -222565 -148659 -147200 -137198 -136180 -134577 134587 136209 139029 152390 -166026 166026"/>
    </vehicle>
    <vehicle id="19" type="bicycle" depart="19.00">
        <route edges="33794 35560 -17266 -16395 -4317 -4133 -2845 -530 -482 -435 -400 -241 -80 -72 -52 62 514 2174 -2229 -1461 1471"/>
    </vehicle>
    <vehicle id="20" type="bicycle" depart="20.00">
        <route edges="192481 -189509 -187215 -169924 168040 139026 -122589 -120661 120659 -95435 -61845 -56271 -55554 55552 56253 -57188 60367 -122715 158705 -156753 -81536 -79631 -78162 -77165 74455 -75436 -63011 -63009 -47941 -46401 30576 35539 -35547 36624 41857 42526 -68082 68084 -83606 83607 -83503 83495 -92259 -90773 131250 132409 134442 136134 -128561 -126068 -96094 -94060 94062 -126072 -123665"/>
    </vehicle>
    <vehicle id="21" type="bicycle" depart="21.00">
        <route edges="-20950 20950 -21725 -29462 -21722 -20937 20933 24832 35407 44606 44608 34132 35122 47243 49178 -38126 -32531 32529 -29964 29962 51387 53909 55204 63373 64047 83116 -97351 -95645 95637 97336 98934 102264 103542 -103668 103672 114281 115119 116765 -166899 166934 168706 170784 223223 244155 -246891 -253499 253537 -253537"/>
    </vehicle>
    <vehicle id="22" type="bicycle" depart="22.00">
        <route edges="-139958 139959 -138811 -136913 -135798 -122147 122163 131977 -131004 128482 128485 131010 133223 147575 -149622 149626 -151076 -121322 -121314 -119578 119580 121309 -121330 123403 -123400 128349 130876 132746 -136311 136320 140640 -139465 -137879 139469 140784 -166899 166902 185599 187562 -220777 -220673 220674 -220425 220423 -222834 -182532 182538 -220199 -217744"/>
    </vehicle>
    <vehicle id="23" type="bicycle" depart="23.00">
        <route edges="-149620 -148480 -123535 -92240 92232 -100608 -98982 98968 -85690 -84553 77610 78712 -38126 -32531 32529 -29964 -29030 -16649 -22447 -22445 -14430 -14023 -6074 6076 -7155 -6870 4166 7154 8575 15692 16588 19169 24469 -24469"/>
    </vehicle>
    <vehicle id="24" type="bicycle" depart="24.00">
        <route edges="159676 -159669 -147946 -146621 -145646 -94315 -57622 -56861 -53331 -52193 52183 -43084 -42493 -41825 -23728 -22882 -21705 21694 -20931 -9856 9489 9853 -14053 -13613 -11673 11677 12626 -13540 -12604 12592 -5555 5232 -1764 1768 9839 11544 12190 -6528 6548 21537 42267 44061 -44061"/>
    </vehicle>
    <vehicle id="25" type="bicycle" depart="25.00">
        <route edges="-32550 -9719 9719 32550 47238 -46892 -12202 -11213 15333 15711 -22447 -22445 33261 34008 35003 36101 16572 -37011 -33977 33975 -33124 33122 36796 37751 40613 49860 -49861 49881 52619 53680 -73090 107126 108535 143709 -144966 -137073 137075 145857 171855 202931 205005 -205005"/>
    </vehicle>
    <vehicle id="26" type="bicycle" depart="26.00">
        <route edges="-228538 228542 233856 256229 266810 269151 -269255 -266823 -261147 -256210 223824 225795 228381 -180300 -178738 -159374 -157312 -126074 126072 -94062 94060 96094 126068 128561 -136134 -134442 -132409 -131250 90773 92259 -83495 83503 -83607 83606 -68084 68082 -42526 -41857 -36624 35547 -35539 -30576 46401 47941 63009 63013 63931 69067 70580"/>
    </vehicle>
    <vehicle id="27" type="bicycle" depart="27.00">
        <route edges="165712 180994 180996 163128 -127721 -122550 -83501 -82692 -81290 -64593 -53358 -52341 -16132 -15529 -10368 -9977 -2904 2902 -2876 -2824 -1418 -1391 -1352 1350 985 1101 1471 1768 9839 11544 12190 6880 7267 -38230 38229 42247 42724 43928 51393 114988 156802 158966 161285 164164 -128359 -93673 93669 95608 97321 132724 -136306 -134818 -132770 132752 139448 140638 161497"/>
    </vehicle>
    <vehicle id="28" type="bicycle" depart="28.00">
        <route edges="-182919 -145482 -144291 -142663 -140936 -139515 -138127 -138122 138123 -96094 -94060 94062 121495 123665 126071 157308 159362 -164949 -162047 164965 167197 201430 -199135 -185896 -199124 199127 -218671 218671"/>
    </vehicle>
    <vehicle id="29" type="bicycle" depart="29.00">
        <route edges="-17940 -16389 -14244 -13746 -12916 -6832 3477 14267 -13956 -13136 -12154 13144 13973 -10084 10090 10392 -7089 7085 7960 8502 27931 -36790 36789 52726 -67199 -65962 -52621"/>
    </vehicle>
    <vehicle id="30" type="bicycle" depart="30.00">
        <route edges="95601 -93882 -80278 -78714 78712 -42409 -42404 -39088 -31182 8803 9356 -3658 -3655 -5232 -5036 -3139 -3076 -1474 1391 1418 2824 2876 -2902 2904 9977 10368 15529 16132 52341 53358 64593 81290 82692 83501 122546 155641 171723 171732 183789 -192136 -185209 185217 -186850 -177591 177585"/>
    </vehicle>
    <vehicle id="31" type="bicycle" depart="31.00">
        <route edges="120094 -118386 124119 -149824 149823 -121842 121848 -157451 -155020 135688 135742 136846 -131588 -129015 129001 -118360 118364 141247 143012 193640 -193500 180352 181806 183040 196280 -196289 196295"/>
    </vehicle>
    <vehicle id="32" type="bicycle" depart="32.00">
        <route edges="277629 -277629 277615 -277355 -266010 259964 -209595 -207828 181486 -182666 -161271 -158769 128336 -130879 -114996 -114159 107159 108807 132740 142493 146131 151092 198504 230438 244014"/>
    </vehicle>
    <vehicle id="33" type="bicycle" depart="33.00">
        <route edges="-210102 -208342 -190715 -188000 187998 190672 -233717 -230775 230749 -211984 211980 -239561 -239560 198842 201433 203626 208226 -208588 -159977 -157638 -141513 141519 143272 -127115 -124156 -120345 120343 -133881 -131750 -102912 -76419 76413 82388 106362 110897 112469 -110950 -110938 110939 127228 129676 -127341 -122145 -104719 -103041 103047 120369 122163 131977 -131004 -116785"/>
    </vehicle>
    <vehicle id="34" type="bicycle" depart="34.00">
        <route edges="-257541 -238598 -213373 -166284 -137622 -136243 -108535 -107126 73090 -53680 -52619 -49881 -43667 -42672 -39479 -33828 -33118 -7659 -7126 -4871 -1942 -1648 -1453 -1288 -1224 -535 -487 -438 -460 482 526 -1027 1033 1093 1215 1303 9975 -16147 -16133 47949 49808 52343 53358 64593 81290 82692 83495 -92259 92261 133349 241765 -239417"/>
    </vehicle>
    <vehicle id="35" type="bicycle" depart="35.00">
        <route edges="-19997 20001 20933 24832 35419 36479 -7794 -7388 7388"/>
    </vehicle>
    <vehicle id="36" type="bicycle" depart="36.00">
        <route edges="41326 43022 -43022 -41326 -40656 35003 36101 16572 -37011 -33977 33975 -33124 33122 36796 37751 40613 -39469 -33828 33832 37740 -37725 -33813 -26270 -25528 -23072 23078 27139 -27139"/>
    </vehicle>
    <vehicle id="37" type="bicycle" depart="37.00">
        <route edges="169459 -169459 -162704 162696 167519 167524 -154732 -151245 -149630 -149622 149626 -151076 -121322 -121314 -118025 -118023 -114928 -60617 60616 80223 -78566 53909 -53902 -52117 52129 53904 -53166 53165 60921 -59885"/>
    </vehicle>
    <vehicle id="38" type="bicycle" depart="38.00">
        <route edges="60071 -61262 61261 61266 63788 -66000 -65239 -45593 -35120 -34132 -18566 -18561 -7794 -7790 8803 9356 -3658 -3655 -1764 -1471 1461 2229 -2174 -514 -62 52 72 -230 273 412 438 487 535 1224 1288 1453 1648 1942 4871 7127 -7085 7089 30619 31115 -41986 54937 55670 86452 87782 90473 -90473"/>
    </vehicle>
    <vehicle id="39" type="bicycle" depart="39.00">
        <route edges="-227677 -225012 -192437 -189460 203044 -200599 -197853 -187188 -182395 -150389 -148659 -147200 -137198 -136180 -134577 134587 136193 137244 -168040 169922 -170201 170199 -189629 -187237 -185428 185424 187229 192540 198243 207579 -225503"/>
    </vehicle>
    <vehicle id="40" type="bicycle" depart="40.00">
        <route edges="12202 -12202 -11213 15333 15711 -22447 -22445 -14430 -14023 -6074 6076 -7155 -6870 4166 7140 -7134 7130 8068 10440 11095 -3632 1937 1986 4871 7127 -7085 7089 30619 31115 -41986 -41547 -41115 41113 46461 48030 62105 98379 -98382 98386 106988 116196 125148 145966 147083 158244 197849 200487 200601 203051 -205090 205112 241080 -241078 -235424"/>
    </vehicle>
    <vehicle id="41" type="bicycle" depart="41.00">
        <route edges="136193 137214 -122589 -120661 120659 -95435 -61845 -56271 56285 60393 82861 83883 91776 91780 -63314 52585 53657 -51902 -36789 -33832 -33118 35692 35693 17476 -16584 -15692 -8575 -7154 7150 8569 9111 -6076 6074 14023 14430 22445 22447 16649 29030 29964 -32529 32531 38126 -49178 -47243 -35122 35120 45593 65239 66000 -57660 -56897 56876 54404 55381"/>
    </vehicle>
    <vehicle id="42" type="bicycle" depart="42.00">
        <route edges="-45927 -34391 -30715 -24819 -23724 23728 41829 42495 44480 -18577 18571 -17782 -16094 16088 17777 37190 38388 -37454 -25862 -14472 14473 32954 -32956 12899 -12893 12881 12895 13732 14184 -15498 15132 29551 31069 49687 59500 60208 61526 88825 -93365 -89057 -86413 -85218 86420 -86410 83867 85194 86405 87655 110045 111243 163149 185253 204858 210775 -208962 208998 210888 268022 -270825 -210884"/>
    </vehicle>
    <vehicle id="43" type="bicycle" depart="43.00">
        <route edges="98683 -98685 -95479 -89141 -84141 -81792 -79895 79867 -52726 -36789 36790 -27931 -8502 -7960 -7085 7089 30619 31115 -60577 -56537 56535 60575 89116 90477 114108"/>
    </vehicle>
    <vehicle id="44" type="bicycle" depart="44.00">
        <route edges="-145011 -143724 -142227 -140448 -107134 -103467 -102241 -97277 -68565 68563 -95492 -75872 -51061 -51041 -49904 -48950 -38356 -37162 -34020 22445 22447 16649 29030 29964 -32529 32531 38126 -49178 -47243 -35122 35120 45593 65239 66000 -63788 -61266 61264 62744 70405 122224 -124486"/>
    </vehicle>
    <vehicle id="45" type="bicycle" depart="45.00">
        <route edges="-15325 15692 16578 17598 33241 33977 49915 51059 75862 77343 -80235 -78573 83145 88052 93684 93699 95661 103672 -139461 139465 140783 145346 -156829 -154720 166943 168848 170826"/>
    </vehicle>
    <vehicle id="46" type="bicycle" depart="46.00">
        <route edges="242045 -242045 -239575 -236582 185854 -180340 -178768 -177078 177074 -178906 -169052 -167228 155020 157451 -121848 -120101 -119712 -118100 -68636 -57983 -57601 -35161 -32585 -31315 -31308 -26784 -25836 -17784 -16094 16088 17777 37190 38388 -37454 -25862 -14472 14473 -10360 -9977 -9515 -8838 -8377 -1303 -1215 -1093 -1033 1027 3801 -3803 3477 14267 -13956 -13136 -12154 13144 13973 -10084 10090 10392 19042 19815 22097 23078 27139 -28895 28897 29706 57169 57183 61816 71314 -71314"/>
    </vehicle>
    <vehicle id="47" type="bicycle" depart="47.00">
        <route edges="-133221 133223 136340 137883 -113284 -111727 -98972 98968 -85690 -84553 77610 78712 -38126 35976 -34858 37041 38230 -7267 -6880 -6528 -6524 -5962 5952 -6080 -5412"/>
    </vehicle>
    <vehicle id="48" type="bicycle" depart="48.00">
        <route edges="98245 -96971 -94881 -93226 -90276 -31568 -31077 -19678 -16966 16998 -17809 -14849 14847 -19791 -18921 18915 45021 45026 46436 47997 15162 13973 -10084 10090 10392 -7089 7085 -7127 7126 7659 35692 -34835 38939 -37751 -36796 51964 57920 68565 97281 103500 105514 107142 108791 121078 123111"/>
    </vehicle>
    <vehicle id="49" type="bicycle" depart="49.00">
        <route edges="8690 -8690 -8226 12250 13291 6524 6528 -12190 -11544 -9839 -1768 1764 3655"/>
    </vehicle>
</routes>
