<?xml version="1.0" encoding="UTF-8"?>

<!-- generated on 2023-11-17 23:51:15 by Eclipse SUMO netedit Version 1.19.0
<configuration xmlns:xsi="http://www.w3.org/2001/XMLSchema-instance" xsi:noNamespaceSchemaLocation="http://sumo.dlr.de/xsd/neteditConfiguration.xsd">

    <input>
        <sumocfg-file value="C:\Users\micro\Desktop\dualTest\DualRoad.sumocfg"/>
        <route-files value="C:\Users\micro\Desktop\dualTest\dualRoadRoutes.rou.xml"/>
        <sumo-net-file value="C:\Users\micro\Desktop\dualTest\dualRoad.net.xml"/>
    </input>

    <output>
        <output-file value="C:\Users\micro\Desktop\dualTest\dualRoad.net.xml"/>
    </output>

    <processing>
        <geometry.min-radius.fix.railways value="false"/>
        <geometry.max-grade.fix value="false"/>
        <offset.disable-normalization value="true"/>
        <lefthand value="0"/>
    </processing>

    <junctions>
        <no-turnarounds value="true"/>
        <junctions.corner-detail value="5"/>
        <junctions.limit-turn-speed value="5.50"/>
        <rectangular-lane-cut value="0"/>
    </junctions>

    <pedestrian>
        <walkingareas value="0"/>
    </pedestrian>

</configuration>
-->

<net version="1.16" junctionCornerDetail="5" limitTurnSpeed="5.50" xmlns:xsi="http://www.w3.org/2001/XMLSchema-instance" xsi:noNamespaceSchemaLocation="http://sumo.dlr.de/xsd/net_file.xsd">

    <location netOffset="0.00,0.00" convBoundary="-135.38,-313.36,466.56,210.43" origBoundary="-10000000000.00,-10000000000.00,10000000000.00,10000000000.00" projParameter="!"/>

    <edge id=":J0_0" function="internal">
        <lane id=":J0_0_0" index="0" speed="6.23" length="9.05" shape="8.14,54.67 8.24,57.19 9.15,58.97 10.86,59.99 13.38,60.26"/>
    </edge>
    <edge id=":J0_1" function="internal">
        <lane id=":J0_1_0" index="0" speed="13.89" length="11.46" shape="8.14,54.67 7.04,66.07"/>
    </edge>
    <edge id=":J0_2" function="internal">
        <lane id=":J0_2_0" index="0" speed="6.50" length="9.30" shape="-1.27,59.50 1.23,59.48 3.09,58.62 4.34,56.91 4.95,54.34"/>
    </edge>
    <edge id=":J0_3" function="internal">
        <lane id=":J0_3_0" index="0" speed="13.89" length="14.68" shape="-1.27,59.50 2.41,59.95 6.04,60.22 9.68,60.32 13.38,60.26"/>
    </edge>
    <edge id=":J0_4" function="internal">
        <lane id=":J0_4_0" index="0" speed="7.49" length="11.74" shape="-1.27,59.50 2.54,60.39 5.19,61.78 6.69,63.68 7.04,66.07"/>
    </edge>
    <edge id=":J0_5" function="internal">
        <lane id=":J0_5_0" index="0" speed="13.89" length="11.51" shape="3.85,65.80 4.95,54.34"/>
    </edge>
    <edge id=":J0_6" function="internal">
        <lane id=":J0_6_0" index="0" speed="7.77" length="2.54" shape="3.85,65.80 4.61,63.50 4.70,63.42"/>
    </edge>
    <edge id=":J0_7" function="internal">
        <lane id=":J0_7_0" index="0" speed="7.77" length="9.53" shape="4.70,63.42 6.46,61.81 9.38,60.73 13.38,60.26"/>
    </edge>
    <edge id=":J10_0" function="internal">
        <lane id=":J10_0_0" index="0" speed="13.89" length="14.46" shape="4.76,139.01 -9.58,137.10"/>
    </edge>
    <edge id=":J10_1" function="internal">
        <lane id=":J10_1_0" index="0" speed="8.05" length="4.09" shape="4.76,139.01 1.03,137.98 0.86,137.84"/>
    </edge>
    <edge id=":J10_6" function="internal">
        <lane id=":J10_6_0" index="0" speed="8.05" length="10.16" shape="0.86,137.84 -1.49,135.98 -2.81,133.02 -2.91,129.10"/>
    </edge>
    <edge id=":J10_2" function="internal">
        <lane id=":J10_2_0" index="0" speed="6.57" length="9.13" shape="0.27,129.46 0.33,131.99 1.17,133.89 2.78,135.17 5.16,135.83"/>
    </edge>
    <edge id=":J10_3" function="internal">
        <lane id=":J10_3_0" index="0" speed="7.95" length="14.29" shape="0.27,129.46 -0.72,133.26 -2.69,135.81 -5.65,137.08 -9.58,137.10"/>
    </edge>
    <edge id=":J10_4" function="internal">
        <lane id=":J10_4_0" index="0" speed="6.45" length="9.03" shape="-9.13,133.93 -6.65,133.92 -4.78,133.11 -3.54,131.51 -2.91,129.10"/>
    </edge>
    <edge id=":J10_5" function="internal">
        <lane id=":J10_5_0" index="0" speed="13.89" length="14.42" shape="-9.13,133.93 5.16,135.83"/>
    </edge>
    <edge id=":J11_0" function="internal">
        <lane id=":J11_0_0" index="0" speed="13.89" length="13.16" shape="94.08,152.08 90.89,150.74 87.92,149.83 84.86,149.20 81.42,148.71"/>
    </edge>
    <edge id=":J11_1" function="internal">
        <lane id=":J11_1_0" index="0" speed="10.13" length="3.28" shape="94.08,152.08 91.35,150.25"/>
    </edge>
    <edge id=":J11_6" function="internal">
        <lane id=":J11_6_0" index="0" speed="10.13" length="10.93" shape="91.35,150.25 89.31,147.69 87.96,144.39 87.31,140.35"/>
    </edge>
    <edge id=":J11_2" function="internal">
        <lane id=":J11_2_0" index="0" speed="8.90" length="10.83" shape="90.50,140.13 90.99,143.30 91.98,145.87 93.47,147.83 95.45,149.19"/>
    </edge>
    <edge id=":J11_3" function="internal">
        <lane id=":J11_3_0" index="0" speed="7.69" length="15.00" shape="90.50,140.13 90.19,144.35 88.58,147.19 85.65,148.64 81.42,148.71"/>
    </edge>
    <edge id=":J11_4" function="internal">
        <lane id=":J11_4_0" index="0" speed="6.12" length="9.06" shape="81.82,145.54 84.38,145.50 86.15,144.62 87.12,142.90 87.31,140.35"/>
    </edge>
    <edge id=":J11_5" function="internal">
        <lane id=":J11_5_0" index="0" speed="13.89" length="14.17" shape="81.82,145.54 85.41,146.07 88.80,146.80 92.11,147.80 95.45,149.19"/>
    </edge>
    <edge id=":J12_0" function="internal">
        <lane id=":J12_0_0" index="0" speed="11.75" length="1.57" shape="-67.14,129.05 -67.60,128.98 -67.91,128.91 -68.21,128.79 -68.63,128.58"/>
    </edge>
    <edge id=":J12_1" function="internal">
        <lane id=":J12_1_0" index="0" speed="13.89" length="0.52" shape="-67.19,125.72 -67.05,125.79 -66.95,125.83 -66.85,125.86 -66.70,125.88"/>
    </edge>
    <edge id=":J13_0" function="internal">
        <lane id=":J13_0_0" index="0" speed="13.89" length="17.34" shape="-105.05,110.29 -108.52,108.09 -111.96,105.08 -114.96,101.65 -117.12,98.16"/>
    </edge>
    <edge id=":J13_1" function="internal">
        <lane id=":J13_1_0" index="0" speed="7.49" length="5.66" shape="-105.05,110.29 -108.88,107.65 -109.34,106.76"/>
    </edge>
    <edge id=":J13_6" function="internal">
        <lane id=":J13_6_0" index="0" speed="7.49" length="10.29" shape="-109.34,106.76 -110.42,104.71 -109.66,101.48 -106.61,97.96"/>
    </edge>
    <edge id=":J13_2" function="internal">
        <lane id=":J13_2_0" index="0" speed="5.83" length="9.13" shape="-104.51,100.37 -106.25,102.39 -106.69,104.24 -105.81,105.92 -103.61,107.43"/>
    </edge>
    <edge id=":J13_3" function="internal">
        <lane id=":J13_3_0" index="0" speed="7.68" length="15.76" shape="-104.51,100.37 -108.37,102.92 -111.76,103.40 -114.67,101.81 -117.12,98.16"/>
    </edge>
    <edge id=":J13_4" function="internal">
        <lane id=":J13_4_0" index="0" speed="6.10" length="9.47" shape="-114.22,96.80 -112.77,98.94 -111.02,99.85 -108.96,99.53 -106.61,97.96"/>
    </edge>
    <edge id=":J13_5" function="internal">
        <lane id=":J13_5_0" index="0" speed="13.89" length="15.28" shape="-114.22,96.80 -112.29,100.05 -109.79,102.97 -106.85,105.46 -103.61,107.43"/>
    </edge>
    <edge id=":J14_0" function="internal">
        <lane id=":J14_0_0" index="0" speed="7.72" length="2.45" shape="-136.47,57.07 -136.77,56.41 -136.92,55.93 -136.96,55.43 -136.92,54.71"/>
    </edge>
    <edge id=":J14_1" function="internal">
        <lane id=":J14_1_0" index="0" speed="13.89" length="0.82" shape="-133.73,54.92 -133.74,55.16 -133.73,55.33 -133.68,55.49 -133.58,55.71"/>
    </edge>
    <edge id=":J15_0" function="internal">
        <lane id=":J15_0_0" index="0" speed="13.89" length="0.22" shape="-130.54,6.75 -130.56,6.97"/>
    </edge>
    <edge id=":J15_1" function="internal">
        <lane id=":J15_1_0" index="0" speed="13.89" length="0.31" shape="-133.76,6.76 -133.73,6.45"/>
    </edge>
    <edge id=":J16_0" function="internal">
        <lane id=":J16_0_0" index="0" speed="6.49" length="9.03" shape="-123.40,-9.40 -125.88,-9.30 -127.72,-8.43 -128.93,-6.79 -129.51,-4.38"/>
    </edge>
    <edge id=":J16_1" function="internal">
        <lane id=":J16_1_0" index="0" speed="8.04" length="14.20" shape="-123.40,-9.40 -127.19,-10.34 -129.78,-12.25 -131.17,-15.14 -131.37,-19.01"/>
    </edge>
    <edge id=":J16_2" function="internal">
        <lane id=":J16_2_0" index="0" speed="6.55" length="9.08" shape="-128.19,-18.72 -128.06,-16.25 -127.16,-14.41 -125.50,-13.18 -123.07,-12.58"/>
    </edge>
    <edge id=":J16_3" function="internal">
        <lane id=":J16_3_0" index="0" speed="13.89" length="14.40" shape="-128.19,-18.72 -129.51,-4.38"/>
    </edge>
    <edge id=":J16_4" function="internal">
        <lane id=":J16_4_0" index="0" speed="13.89" length="14.39" shape="-132.69,-4.68 -131.37,-19.01"/>
    </edge>
    <edge id=":J16_5" function="internal">
        <lane id=":J16_5_0" index="0" speed="7.98" length="4.07" shape="-132.69,-4.68 -131.78,-8.48 -131.69,-8.61"/>
    </edge>
    <edge id=":J16_6" function="internal">
        <lane id=":J16_6_0" index="0" speed="7.98" length="10.16" shape="-131.69,-8.61 -129.88,-11.06 -126.97,-12.43 -123.07,-12.58"/>
    </edge>
    <edge id=":J17_0" function="internal">
        <lane id=":J17_0_0" index="0" speed="6.55" length="8.87" shape="-55.14,-2.61 -57.52,-2.43 -59.31,-1.52 -60.51,0.12 -61.11,2.49"/>
    </edge>
    <edge id=":J17_1" function="internal">
        <lane id=":J17_1_0" index="0" speed="13.89" length="10.86" shape="-55.14,-2.61 -65.96,-3.50"/>
    </edge>
    <edge id=":J17_2" function="internal">
        <lane id=":J17_2_0" index="0" speed="13.89" length="10.75" shape="-65.63,-6.68 -54.91,-5.80"/>
    </edge>
    <edge id=":J17_3" function="internal">
        <lane id=":J17_3_0" index="0" speed="7.24" length="2.46" shape="-65.63,-6.68 -63.29,-5.90"/>
    </edge>
    <edge id=":J17_4" function="internal">
        <lane id=":J17_4_0" index="0" speed="7.24" length="9.04" shape="-63.29,-5.90 -61.76,-4.11 -61.03,-1.31 -61.11,2.49"/>
    </edge>
    <edge id=":J18_0" function="internal">
        <lane id=":J18_0_0" index="0" speed="7.87" length="8.06" shape="-59.04,15.87 -61.19,15.33 -63.18,15.30 -65.01,15.80 -66.66,16.82"/>
    </edge>
    <edge id=":J18_1" function="internal">
        <lane id=":J18_1_0" index="0" speed="7.24" length="9.37" shape="-61.38,4.94 -61.44,7.84 -60.88,10.13 -59.72,11.81 -57.95,12.86"/>
    </edge>
    <edge id=":J18_2" function="internal">
        <lane id=":J18_2_0" index="0" speed="12.17" length="13.38" shape="-61.38,4.94 -61.90,8.44 -62.78,11.56 -64.28,14.33 -66.66,16.82"/>
    </edge>
    <edge id=":J18_3" function="internal">
        <lane id=":J18_3_0" index="0" speed="9.25" length="2.80" shape="-68.69,14.35 -66.31,12.86"/>
    </edge>
    <edge id=":J18_4" function="internal">
        <lane id=":J18_4_0" index="0" speed="9.25" length="8.56" shape="-66.31,12.86 -63.73,12.12 -60.94,12.12 -57.95,12.86"/>
    </edge>
    <edge id=":J19_0" function="internal">
        <lane id=":J19_0_0" index="0" speed="11.97" length="15.30" shape="-12.26,65.72 -14.85,62.51 -16.60,59.13 -17.49,55.58 -17.53,51.87"/>
    </edge>
    <edge id=":J19_1" function="internal">
        <lane id=":J19_1_0" index="0" speed="6.56" length="6.28" shape="-12.26,65.72 -15.25,61.86 -15.36,60.47"/>
    </edge>
    <edge id=":J19_4" function="internal">
        <lane id=":J19_4_0" index="0" speed="6.56" length="9.31" shape="-15.36,60.47 -15.44,59.39 -12.84,58.30 -7.44,58.60"/>
    </edge>
    <edge id=":J19_2" function="internal">
        <lane id=":J19_2_0" index="0" speed="7.10" length="10.57" shape="-14.35,52.19 -14.12,54.59 -12.89,56.46 -10.66,57.79 -7.44,58.60"/>
    </edge>
    <edge id=":J19_3" function="internal">
        <lane id=":J19_3_0" index="0" speed="10.87" length="12.53" shape="-14.35,52.19 -14.31,55.19 -13.56,58.07 -12.11,60.84 -9.95,63.50"/>
    </edge>
    <edge id=":J2_0" function="internal">
        <lane id=":J2_0_0" index="0" speed="9.80" length="9.09" shape="108.73,49.90 106.51,48.70 104.33,47.99 102.19,47.75 100.08,48.01"/>
    </edge>
    <edge id=":J2_1" function="internal">
        <lane id=":J2_1_0" index="0" speed="8.05" length="12.41" shape="108.73,49.90 106.21,47.74 104.81,45.22 104.53,42.35 105.38,39.14"/>
    </edge>
    <edge id=":J2_2" function="internal">
        <lane id=":J2_2_0" index="0" speed="6.55" length="7.90" shape="108.33,40.36 107.79,42.41 107.97,44.24 108.86,45.84 110.47,47.22"/>
    </edge>
    <edge id=":J2_3" function="internal">
        <lane id=":J2_3_0" index="0" speed="9.93" length="11.68" shape="108.33,40.36 106.83,43.21 104.96,45.43 102.71,47.03 100.08,48.01"/>
    </edge>
    <edge id=":J20_0" function="internal">
        <lane id=":J20_0_0" index="0" speed="6.14" length="6.43" shape="-15.58,28.17 -14.07,28.96 -13.04,30.05 -12.49,31.45 -12.44,33.16"/>
    </edge>
    <edge id=":J20_1" function="internal">
        <lane id=":J20_1_0" index="0" speed="3.94" length="2.14" shape="-15.62,32.84 -15.64,32.27 -15.82,31.81 -16.16,31.44 -16.67,31.18"/>
    </edge>
    <edge id=":J21_0" function="internal">
        <lane id=":J21_0_0" index="0" speed="6.14" length="6.36" shape="-96.62,41.79 -97.11,40.18 -97.05,38.69 -96.44,37.33 -95.29,36.09"/>
    </edge>
    <edge id=":J21_1" function="internal">
        <lane id=":J21_1_0" index="0" speed="3.94" length="2.12" shape="-93.26,38.57 -93.65,38.98 -93.85,39.43 -93.87,39.93 -93.70,40.47"/>
    </edge>
    <edge id=":J22_0" function="internal">
        <lane id=":J22_0_0" index="0" speed="6.16" length="6.20" shape="-78.77,73.36 -78.29,74.93 -78.33,76.39 -78.90,77.73 -79.98,78.96"/>
    </edge>
    <edge id=":J22_1" function="internal">
        <lane id=":J22_1_0" index="0" speed="3.94" length="2.07" shape="-82.09,76.55 -81.72,76.14 -81.54,75.69 -81.52,75.21 -81.68,74.68"/>
    </edge>
    <edge id=":J23_0" function="internal">
        <lane id=":J23_0_0" index="0" speed="13.89" length="14.39" shape="182.33,193.90 169.34,187.72"/>
    </edge>
    <edge id=":J23_1" function="internal">
        <lane id=":J23_1_0" index="0" speed="8.09" length="4.01" shape="182.33,193.90 179.13,191.76 179.04,191.62"/>
    </edge>
    <edge id=":J23_6" function="internal">
        <lane id=":J23_6_0" index="0" speed="8.09" length="10.21" shape="179.04,191.62 177.36,189.08 177.01,185.86 178.10,182.09"/>
    </edge>
    <edge id=":J23_2" function="internal">
        <lane id=":J23_2_0" index="0" speed="6.61" length="9.16" shape="181.02,183.39 180.32,185.83 180.53,187.91 181.66,189.64 183.71,191.01"/>
    </edge>
    <edge id=":J23_3" function="internal">
        <lane id=":J23_3_0" index="0" speed="7.96" length="14.28" shape="181.02,183.39 178.93,186.72 176.29,188.55 173.09,188.88 169.34,187.72"/>
    </edge>
    <edge id=":J23_4" function="internal">
        <lane id=":J23_4_0" index="0" speed="6.46" length="9.03" shape="170.71,184.83 173.08,185.56 175.10,185.35 176.78,184.19 178.10,182.09"/>
    </edge>
    <edge id=":J23_5" function="internal">
        <lane id=":J23_5_0" index="0" speed="13.89" length="14.40" shape="170.71,184.83 183.71,191.01"/>
    </edge>
    <edge id=":J24_0" function="internal">
        <lane id=":J24_0_0" index="0" speed="13.89" length="3.55" shape="199.62,142.13 199.08,143.03 198.73,143.66 198.42,144.32 197.99,145.28"/>
    </edge>
    <edge id=":J24_1" function="internal">
        <lane id=":J24_1_0" index="0" speed="5.08" length="3.39" shape="199.62,142.13 197.76,144.67 197.54,144.78"/>
    </edge>
    <edge id=":J24_3" function="internal">
        <lane id=":J24_3_0" index="0" speed="5.08" length="5.95" shape="197.54,144.78 196.52,145.26 195.91,143.90 195.92,140.58"/>
    </edge>
    <edge id=":J24_2" function="internal">
        <lane id=":J24_2_0" index="0" speed="13.89" length="3.53" shape="195.06,143.98 195.48,143.02 195.71,142.33 195.83,141.62 195.92,140.58"/>
    </edge>
    <edge id=":J25_0" function="internal">
        <lane id=":J25_0_0" index="0" speed="4.26" length="1.22" shape="199.24,96.59 199.26,96.23 199.22,95.98 199.11,95.75 198.89,95.47"/>
    </edge>
    <edge id=":J26_0" function="internal">
        <lane id=":J26_0_0" index="0" speed="7.72" length="7.13" shape="174.61,65.11 173.12,63.50 171.64,62.38 170.16,61.76 168.69,61.63"/>
    </edge>
    <edge id=":J26_1" function="internal">
        <lane id=":J26_1_0" index="0" speed="6.04" length="9.98" shape="174.61,65.11 172.77,62.27 172.27,60.02 173.11,58.35 175.28,57.26"/>
    </edge>
    <edge id=":J26_2" function="internal">
        <lane id=":J26_2_0" index="0" speed="13.89" length="7.59" shape="176.14,60.35 173.97,60.93 172.46,61.26 170.93,61.45 168.69,61.63"/>
    </edge>
    <edge id=":J26_3" function="internal">
        <lane id=":J26_3_0" index="0" speed="13.89" length="6.96" shape="168.44,58.44 170.50,58.27 171.91,58.10 173.29,57.80 175.28,57.26"/>
    </edge>
    <edge id=":J27_0" function="internal">
        <lane id=":J27_0_0" index="0" speed="10.48" length="9.21" shape="279.46,32.76 276.97,33.61 275.50,34.74 274.37,36.37 272.91,38.69"/>
    </edge>
    <edge id=":J27_1" function="internal">
        <lane id=":J27_1_0" index="0" speed="13.89" length="9.41" shape="279.46,32.76 270.34,35.05"/>
    </edge>
    <edge id=":J27_2" function="internal">
        <lane id=":J27_2_0" index="0" speed="7.95" length="7.44" shape="272.07,26.94 273.92,28.38 275.65,29.31 277.25,29.73 278.72,29.65"/>
    </edge>
    <edge id=":J27_3" function="internal">
        <lane id=":J27_3_0" index="0" speed="8.08" length="13.08" shape="272.07,26.94 274.19,29.50 275.03,32.31 274.61,35.37 272.91,38.69"/>
    </edge>
    <edge id=":J27_4" function="internal">
        <lane id=":J27_4_0" index="0" speed="6.19" length="11.75" shape="272.07,26.94 274.48,29.67 274.99,31.93 273.61,33.72 270.34,35.05"/>
    </edge>
    <edge id=":J27_5" function="internal">
        <lane id=":J27_5_0" index="0" speed="13.89" length="9.47" shape="269.54,31.95 278.72,29.65"/>
    </edge>
    <edge id=":J27_6" function="internal">
        <lane id=":J27_6_0" index="0" speed="6.08" length="4.03" shape="269.54,31.95 273.36,31.44 273.51,31.52"/>
    </edge>
    <edge id=":J27_7" function="internal">
        <lane id=":J27_7_0" index="0" speed="6.08" length="8.74" shape="273.51,31.52 275.19,32.39 275.04,34.81 272.91,38.69"/>
    </edge>
    <edge id=":J28_0" function="internal">
        <lane id=":J28_0_0" index="0" speed="6.19" length="9.05" shape="260.82,66.52 258.84,64.92 256.92,64.44 255.03,65.08 253.20,66.84"/>
    </edge>
    <edge id=":J28_1" function="internal">
        <lane id=":J28_1_0" index="0" speed="7.46" length="10.07" shape="261.71,55.22 260.69,57.43 260.60,59.69 261.42,61.99 263.16,64.35"/>
    </edge>
    <edge id=":J28_2" function="internal">
        <lane id=":J28_2_0" index="0" speed="13.89" length="14.40" shape="261.71,55.22 253.20,66.84"/>
    </edge>
    <edge id=":J29_0" function="internal">
        <lane id=":J29_0_0" index="0" speed="13.89" length="0.18" shape="219.70,109.69 219.67,109.73 219.65,109.76 219.63,109.79 219.60,109.83"/>
    </edge>
    <edge id=":J30_0" function="internal">
        <lane id=":J30_0_0" index="0" speed="13.89" length="7.69" shape="228.01,45.99 220.57,47.96"/>
    </edge>
    <edge id=":J30_1" function="internal">
        <lane id=":J30_1_0" index="0" speed="5.91" length="3.63" shape="228.01,45.99 224.53,46.43 224.42,46.37"/>
    </edge>
    <edge id=":J30_4" function="internal">
        <lane id=":J30_4_0" index="0" speed="5.91" length="8.20" shape="224.42,46.37 222.83,45.51 222.92,43.23 224.80,39.57"/>
    </edge>
    <edge id=":J30_2" function="internal">
        <lane id=":J30_2_0" index="0" speed="9.71" length="7.66" shape="219.72,44.88 221.72,44.07 222.84,43.02 223.67,41.57 224.80,39.57"/>
    </edge>
    <edge id=":J30_3" function="internal">
        <lane id=":J30_3_0" index="0" speed="13.89" length="7.75" shape="219.72,44.88 227.21,42.89"/>
    </edge>
    <edge id=":J31_0" function="internal">
        <lane id=":J31_0_0" index="0" speed="13.89" length="12.16" shape="136.94,64.07 133.71,64.63 131.20,65.70 128.89,67.31 126.30,69.43"/>
    </edge>
    <edge id=":J31_1" function="internal">
        <lane id=":J31_1_0" index="0" speed="13.89" length="14.07" shape="136.94,64.07 133.38,63.93 130.10,63.03 126.96,61.56 123.85,59.67"/>
    </edge>
    <edge id=":J31_2" function="internal">
        <lane id=":J31_2_0" index="0" speed="13.23" length="12.07" shape="125.58,56.98 128.39,58.79 130.84,60.09 133.44,60.82 136.69,60.88"/>
    </edge>
    <edge id=":J31_3" function="internal">
        <lane id=":J31_3_0" index="0" speed="7.56" length="15.52" shape="125.58,56.98 128.95,59.91 130.20,62.96 129.32,66.13 126.30,69.43"/>
    </edge>
    <edge id=":J31_4" function="internal">
        <lane id=":J31_4_0" index="0" speed="5.94" length="9.09" shape="124.27,66.96 126.03,65.03 126.55,63.17 125.82,61.38 123.85,59.67"/>
    </edge>
    <edge id=":J31_5" function="internal">
        <lane id=":J31_5_0" index="0" speed="13.89" length="14.06" shape="124.27,66.96 127.14,64.72 130.06,62.87 133.19,61.55 136.69,60.88"/>
    </edge>
    <edge id=":J32_0" function="internal">
        <lane id=":J32_0_0" index="0" speed="13.89" length="1.60" shape="120.84,10.03 120.30,11.53"/>
    </edge>
    <edge id=":J32_1" function="internal">
        <lane id=":J32_1_0" index="0" speed="13.89" length="0.52" shape="117.35,10.31 117.41,10.16 117.44,10.06 117.46,9.96 117.47,9.80"/>
    </edge>
    <edge id=":J33_0" function="internal">
        <lane id=":J33_0_0" index="0" speed="6.39" length="4.58" shape="84.61,102.25 84.65,101.07 84.96,100.00 85.52,99.05 86.35,98.21"/>
    </edge>
    <edge id=":J33_1" function="internal">
        <lane id=":J33_1_0" index="0" speed="4.07" length="1.53" shape="88.38,100.68 88.11,100.96 87.92,101.27 87.82,101.63 87.80,102.02"/>
    </edge>
    <edge id=":J34_0" function="internal">
        <lane id=":J34_0_0" index="0" speed="6.75" length="8.34" shape="22.64,-45.04 20.34,-44.50 18.64,-43.46 17.55,-41.92 17.05,-39.88"/>
    </edge>
    <edge id=":J34_1" function="internal">
        <lane id=":J34_1_0" index="0" speed="6.71" length="11.00" shape="22.64,-45.04 18.98,-44.99 16.43,-45.79 14.98,-47.42 14.64,-49.89"/>
    </edge>
    <edge id=":J34_2" function="internal">
        <lane id=":J34_2_0" index="0" speed="13.89" length="9.81" shape="17.83,-49.66 17.05,-39.88"/>
    </edge>
    <edge id=":J34_3" function="internal">
        <lane id=":J34_3_0" index="0" speed="13.89" length="9.77" shape="13.86,-40.15 14.64,-49.89"/>
    </edge>
    <edge id=":J35_0" function="internal">
        <lane id=":J35_0_0" index="0" speed="4.32" length="1.14" shape="-125.46,-44.45 -125.70,-44.21 -125.83,-44.02 -125.89,-43.79 -125.93,-43.46"/>
    </edge>
    <edge id=":J35_1" function="internal">
        <lane id=":J35_1_0" index="0" speed="6.87" length="3.41" shape="-129.12,-43.75 -129.00,-44.75 -128.80,-45.42 -128.41,-46.01 -127.72,-46.73"/>
    </edge>
    <edge id=":J36_0" function="internal">
        <lane id=":J36_0_0" index="0" speed="13.89" length="0.88" shape="-66.44,-102.60 -66.69,-102.53 -66.85,-102.46 -67.00,-102.36 -67.19,-102.18"/>
    </edge>
    <edge id=":J36_1" function="internal">
        <lane id=":J36_1_0" index="0" speed="7.48" length="2.63" shape="-69.44,-104.45 -68.88,-104.99 -68.44,-105.30 -67.94,-105.51 -67.19,-105.70"/>
    </edge>
    <edge id=":J37_0" function="internal">
        <lane id=":J37_0_0" index="0" speed="13.89" length="0.38" shape="7.52,-120.55 7.41,-120.55 7.33,-120.54 7.26,-120.53 7.15,-120.50"/>
    </edge>
    <edge id=":J37_1" function="internal">
        <lane id=":J37_1_0" index="0" speed="13.89" length="1.15" shape="6.39,-123.61 6.72,-123.69 6.95,-123.73 7.18,-123.75 7.52,-123.75"/>
    </edge>
    <edge id=":J38_0" function="internal">
        <lane id=":J38_0_0" index="0" speed="6.57" length="9.25" shape="28.46,-120.04 25.98,-119.85 24.15,-118.88 22.96,-117.14 22.43,-114.62"/>
    </edge>
    <edge id=":J38_1" function="internal">
        <lane id=":J38_1_0" index="0" speed="13.89" length="14.55" shape="28.46,-120.04 13.93,-120.55"/>
    </edge>
    <edge id=":J38_2" function="internal">
        <lane id=":J38_2_0" index="0" speed="7.98" length="14.24" shape="28.46,-120.04 24.65,-120.87 22.02,-122.72 20.60,-125.59 20.37,-129.50"/>
    </edge>
    <edge id=":J38_3" function="internal">
        <lane id=":J38_3_0" index="0" speed="6.48" length="9.03" shape="23.56,-129.23 23.70,-126.75 24.61,-124.93 26.27,-123.75 28.69,-123.23"/>
    </edge>
    <edge id=":J38_4" function="internal">
        <lane id=":J38_4_0" index="0" speed="13.89" length="14.65" shape="23.56,-129.23 22.43,-114.62"/>
    </edge>
    <edge id=":J38_5" function="internal">
        <lane id=":J38_5_0" index="0" speed="8.34" length="4.03" shape="23.56,-129.23 22.68,-125.43 22.61,-125.32"/>
    </edge>
    <edge id=":J38_12" function="internal">
        <lane id=":J38_12_0" index="0" speed="8.34" length="10.50" shape="22.61,-125.32 20.79,-122.72 17.87,-121.09 13.93,-120.55"/>
    </edge>
    <edge id=":J38_6" function="internal">
        <lane id=":J38_6_0" index="0" speed="6.91" length="9.67" shape="13.93,-123.75 16.56,-124.11 18.52,-125.19 19.78,-126.98 20.37,-129.50"/>
    </edge>
    <edge id=":J38_7" function="internal">
        <lane id=":J38_7_0" index="0" speed="13.89" length="14.78" shape="13.93,-123.75 28.69,-123.23"/>
    </edge>
    <edge id=":J38_8" function="internal">
        <lane id=":J38_8_0" index="0" speed="7.88" length="14.47" shape="13.93,-123.75 17.89,-123.18 20.63,-121.47 22.14,-118.61 22.43,-114.62"/>
    </edge>
    <edge id=":J38_9" function="internal">
        <lane id=":J38_9_0" index="0" speed="6.36" length="9.04" shape="19.24,-114.85 19.06,-117.34 18.11,-119.12 16.40,-120.19 13.93,-120.55"/>
    </edge>
    <edge id=":J38_10" function="internal">
        <lane id=":J38_10_0" index="0" speed="13.89" length="14.69" shape="19.24,-114.85 20.37,-129.50"/>
    </edge>
    <edge id=":J38_11" function="internal">
        <lane id=":J38_11_0" index="0" speed="8.06" length="4.22" shape="19.24,-114.85 20.07,-118.75 20.20,-118.94"/>
    </edge>
    <edge id=":J38_13" function="internal">
        <lane id=":J38_13_0" index="0" speed="8.06" length="10.19" shape="20.20,-118.94 21.92,-121.45 24.80,-122.94 28.69,-123.23"/>
    </edge>
    <edge id=":J39_0" function="internal">
        <lane id=":J39_0_0" index="0" speed="5.46" length="10.25" shape="76.39,-114.82 73.02,-115.18 71.42,-114.50 71.59,-112.77 73.53,-109.99"/>
    </edge>
    <edge id=":J39_1" function="internal">
        <lane id=":J39_1_0" index="0" speed="13.89" length="16.93" shape="76.39,-114.82 72.42,-115.67 68.09,-116.56 63.75,-117.32 59.73,-117.79"/>
    </edge>
    <edge id=":J39_2" function="internal">
        <lane id=":J39_2_0" index="0" speed="13.89" length="17.36" shape="59.96,-120.99 64.04,-120.51 68.54,-119.72 73.01,-118.81 77.04,-117.95"/>
    </edge>
    <edge id=":J39_3" function="internal">
        <lane id=":J39_3_0" index="0" speed="13.73" length="3.01" shape="59.96,-120.99 62.47,-120.18 62.78,-119.97"/>
    </edge>
    <edge id=":J39_4" function="internal">
        <lane id=":J39_4_0" index="0" speed="13.73" length="14.73" shape="62.78,-119.97 65.57,-118.08 69.26,-114.68 73.53,-109.99"/>
    </edge>
    <edge id=":J40_0" function="internal">
        <lane id=":J40_0_0" index="0" speed="3.96" length="1.99" shape="119.86,-26.73 119.82,-27.25 119.65,-27.69 119.34,-28.04 118.89,-28.31"/>
    </edge>
    <edge id=":J41_0" function="internal">
        <lane id=":J41_0_0" index="0" speed="13.89" length="0.83" shape="68.20,-49.87 67.98,-49.96 67.81,-50.00 67.65,-50.01 67.40,-49.99"/>
    </edge>
    <edge id=":J42_0" function="internal">
        <lane id=":J42_0_0" index="0" speed="13.89" length="0.46" shape="97.67,-81.76 97.76,-81.66 97.82,-81.59 97.90,-81.53 98.01,-81.46"/>
    </edge>
    <edge id=":J43_0" function="internal">
        <lane id=":J43_0_0" index="0" speed="4.24" length="1.25" shape="130.76,-60.11 131.06,-59.90 131.24,-59.72 131.36,-59.48 131.45,-59.13"/>
    </edge>
    <edge id=":J44_0" function="internal">
        <lane id=":J44_0_0" index="0" speed="13.89" length="0.87" shape="136.18,-38.72 136.23,-38.47 136.25,-38.29 136.22,-38.12 136.14,-37.87"/>
    </edge>
    <edge id=":J45_0" function="internal">
        <lane id=":J45_0_0" index="0" speed="13.89" length="0.26" shape="117.13,-106.29 117.06,-106.32 117.01,-106.34 116.96,-106.35 116.88,-106.37"/>
    </edge>
    <edge id=":J45_1" function="internal">
        <lane id=":J45_1_0" index="0" speed="13.89" length="0.77" shape="117.54,-109.50 117.76,-109.45 117.91,-109.41 118.06,-109.36 118.27,-109.28"/>
    </edge>
    <edge id=":J46_0" function="internal">
        <lane id=":J46_0_0" index="0" speed="13.89" length="9.41" shape="181.40,-80.66 179.12,-82.26 177.45,-83.19 175.67,-83.91 173.05,-84.89"/>
    </edge>
    <edge id=":J46_1" function="internal">
        <lane id=":J46_1_0" index="0" speed="7.40" length="2.51" shape="181.40,-80.66 179.81,-82.46 179.78,-82.56"/>
    </edge>
    <edge id=":J46_4" function="internal">
        <lane id=":J46_4_0" index="0" speed="7.40" length="8.58" shape="179.78,-82.56 179.26,-84.73 179.75,-87.47 181.28,-90.69"/>
    </edge>
    <edge id=":J46_2" function="internal">
        <lane id=":J46_2_0" index="0" speed="6.71" length="8.40" shape="174.19,-87.87 176.29,-87.42 178.17,-87.73 179.83,-88.83 181.28,-90.69"/>
    </edge>
    <edge id=":J46_3" function="internal">
        <lane id=":J46_3_0" index="0" speed="13.89" length="10.28" shape="174.19,-87.87 177.02,-86.81 178.99,-86.00 180.84,-84.96 183.30,-83.24"/>
    </edge>
    <edge id=":J47_0" function="internal">
        <lane id=":J47_0_0" index="0" speed="10.86" length="10.33" shape="238.64,-33.25 238.10,-36.25 237.44,-38.33 236.20,-40.03 233.90,-41.95"/>
    </edge>
    <edge id=":J47_1" function="internal">