<?xml version="1.0" encoding="UTF-8"?>

<!-- generated on 2024-01-19 13:44:13.629823 by randomTrips.py v1_19_0+0143-4ff360ee235
<configuration>
    <net-file value="large.net.xml"/>
    <output-trip-file value="large.xml"/>
    <route-file value="large.rou.xml"/>
    <trip-attributes value="maxSpeed=&quot;20.0&quot;"/>
    <vehicle-class value="bicycle"/>
    <end value="25.0"/>
</configuration>
-->

<!-- generated on 2024-01-19 13:44:13 by Eclipse SUMO duarouter Version v1_19_0+0143-4ff360ee235
<configuration xmlns:xsi="http://www.w3.org/2001/XMLSchema-instance" xsi:noNamespaceSchemaLocation="http://sumo.dlr.de/xsd/duarouterConfiguration.xsd">

    <input>
        <net-file value="large.net.xml"/>
        <route-files value="large.xml"/>
    </input>

    <output>
        <output-file value="large.rou.xml"/>
        <alternatives-output value="NUL"/>
    </output>

    <time>
        <begin value="0"/>
        <end value="25.0"/>
    </time>

    <report>
        <no-warnings value="true"/>
        <ignore-errors value="true"/>
        <no-step-log value="true"/>
    </report>

</configuration>
-->

<routes xmlns:xsi="http://www.w3.org/2001/XMLSchema-instance" xsi:noNamespaceSchemaLocation="http://sumo.dlr.de/xsd/routes_file.xsd">
    <vType id="bicycle" maxSpeed="20.00" vClass="bicycle"/>
    <vehicle id="0" type="bicycle" depart="0.00">
        <route edges="2365 -2364 -2167 -1805 -277 -253 -79 -60 -31 -23 -11 5 542 1044 1354 -1354"/>
    </vehicle>
    <vehicle id="1" type="bicycle" depart="1.00">
        <route edges="-4172 -4078 -3870 -2702 2704 -2765 -811 68 293 305 23 31 64 -371"/>
    </vehicle>
    <vehicle id="2" type="bicycle" depart="2.00">
        <route edges="3442 3928 -3865 -3312 3308"/>
    </vehicle>
    <vehicle id="3" type="bicycle" depart="3.00">
        <route edges="542 -806 533 926 1077 1217 1815 -2202"/>
    </vehicle>
    <vehicle id="4" type="bicycle" depart="4.00">
        <route edges="-5761 -3954 -3708 -3089 -2814 -2740 -2377 -2171 -1805 -277 -253 -79 92 139 -139"/>
    </vehicle>
    <vehicle id="5" type="bicycle" depart="5.00">
        <route edges="-3600 -3090 -2187 -1805 -277 -253 -79 92 139"/>
    </vehicle>
    <vehicle id="6" type="bicycle" depart="6.00">
        <route edges="-1354 -1044 -542 -5 3 27 43 811 2312 2534 3306 -3308"/>
    </vehicle>
    <vehicle id="7" type="bicycle" depart="7.00">
        <route edges="2514 -2514 -2205 -1815 1815"/>
    </vehicle>
    <vehicle id="8" type="bicycle" depart="8.00">
        <route edges="-364 -328 -316 -372 371 -75 79 253 277 1805 2171 2365"/>
    </vehicle>
    <vehicle id="9" type="bicycle" depart="9.00">
        <route edges="4404 -4404 -2402 -2197 -1200 -1070"/>
    </vehicle>
    <vehicle id="10" type="bicycle" depart="10.00">
        <route edges="4314 -4144 -3948 -3706 3706"/>
    </vehicle>
    <vehicle id="11" type="bicycle" depart="11.00">
        <route edges="-4591 -4484 -2746 -1200 -1071 -926 -533 806 1042 -1182 1561 1583 1610 2704 -2765"/>
    </vehicle>
    <vehicle id="12" type="bicycle" depart="12.00">
        <route edges="6116 -6118 -3724 -3097 -2927 -2751 -2513 -1540 1536 -1554 -1408 1407 -1044 -542 -5 3 27 43 811 2312 2596 3312 3865 -3928 4302 5690 5944 5380 -4953"/>
    </vehicle>
    <vehicle id="13" type="bicycle" depart="13.00">
        <route edges="-23 -305 -293 -68 809 -1577 1593 1618 -2322 -2320"/>
    </vehicle>
    <vehicle id="14" type="bicycle" depart="14.00">
        <route edges="4567 -4567 -4473 -4312 -4138 -3948 -3942 -2365 -2171 -1805 -277 -253 -79 -60 -31 -23 -305 -293 -68 811 2312 2534"/>
    </vehicle>
    <vehicle id="15" type="bicycle" depart="15.00">
        <route edges="4316 5752 -3950 3956"/>
    </vehicle>
    <vehicle id="16" type="bicycle" depart="16.00">
        <route edges="1077 1211 -1408 1407 -1044 -542 -5 3 27 43 68"/>
    </vehicle>
    <vehicle id="17" type="bicycle" depart="17.00">
        <route edges="-5391 -4567 -4473 -4312 -4138 -3948 -3942 -2365 -2171 -1805 -277 269 2039"/>
    </vehicle>
    <vehicle id="18" type="bicycle" depart="18.00">
        <route edges="4478 -4478 -4318 -4142 -3948 -3942 -2365 -2171 -1805 -277 -253 -79 -60 -31 -23 -305 -293 -68 809 -1577 1593 1618 -2322 2326 2723"/>
    </vehicle>
    <vehicle id="19" type="bicycle" depart="19.00">
        <route edges="4720 5144 -5144 -4720 -4516 -4418 -2516 -2205 -1815 -1217 1211 -1408 -1379 1373 2328 -2324 2324"/>
    </vehicle>
    <vehicle id="20" type="bicycle" depart="20.00">
        <route edges="2979 -3434 3442 3928 -3865 -3312 -2596 -2312 -811 809 -1577 -1561"/>
    </vehicle>
    <vehicle id="21" type="bicycle" depart="21.00">
        <route edges="-3714 -3097 -2927 -2751 -2513 2202 -1815 -1217 -1077 -926 -533 806 1042 -1182 1561 1583 1610 2702 3870 4078 4172 -4426"/>
    </vehicle>
    <vehicle id="22" type="bicycle" depart="22.00">
        <route edges="-2063 2039 2331 2733 2784 2977 3442 3928 -3865 3851 -3851"/>
    </vehicle>
    <vehicle id="23" type="bicycle" depart="23.00">
        <route edges="-2322 2322 -1618 -1593 1577 -809 68 293 305 23 31 60 79 253 277 1805 2171 2365 3942 3948 4144 -4313"/>
    </vehicle>
    <vehicle id="24" type="bicycle" depart="24.00">
        <route edges="2336 -2187 2171 2365 3942 3948 4138 4312 4475 4571 5416 -5416"/>
    </vehicle>
</routes>
