<?xml version="1.0" encoding="UTF-8"?>

<!-- generated on 2023-12-21 09:06:44.480433 by randomTrips.py v1_19_0+0143-4ff360ee235
-->

<routes xmlns:xsi="http://www.w3.org/2001/XMLSchema-instance" xsi:noNamespaceSchemaLocation="http://sumo.dlr.de/xsd/routes_file.xsd">
    <vType id="bicycle" maxSpeed="20.00" vClass="bicycle"/>
    <!-- The first bicycle cycles only in the left bottom area -->
    <vehicle id="0" type="bicycle" depart="0.00">
        <route edges="353872 353874 -347496 -344571 -341776"/>
    </vehicle>
    <vehicle id="1" type="bicycle" depart="1.00">
        <route edges="-371678 371678 376119 380541 384230 423247 -426964 -283152 -280949 -276227 -274463 -197136 -194168 -194164 -139927 139929 -141495 -127103 127115 -129562 -127093 -89766 -88533 124141 -124119 118386 -120094 -94315 -57622 57628 73409 -74745 -66156 -35155 -32585 -31315 -31308 -26784 -25836 -17784 -16094 16088 17777 37190 38388 -37454 -25862 -14472 14473 33783 -33783"/>
    </vehicle>
    <vehicle id="2" type="bicycle" depart="2.00">
        <route edges="332767 -332767 -326671 -323821 -320952 -280629 -278623 -276046 269137 296612 299611 280631 -278654 -258597 258585 -221215 -218699 208427 -206339 -204015 204011 299637 -299598 299598"/>
    </vehicle>
    <vehicle id="3" type="bicycle" depart="3.00">
        <route edges="494967 -489505 -438814 -434886 -431412 -427970 -420428 420426 -373092 -369107 -365246 -362152 -359336 -352493 -349867 -337204 337200 340432 349864 352486 -337159 -319462 -313515 313513 -311152 -238235 -205104 -203099 -200738 -198075 -187200"/>
    </vehicle>
    <vehicle id="4" type="bicycle" depart="4.00">
        <route edges="-521392 -516339 -502311 -450079 450071 465600 470762 -347502 -344571 -341776 341768 344509 -344676 -325913 -322753 -320355 317587 -295772 -293264 -278202 -275567 -247334 -244155 -223223 -170784 -168951 -164448 -140794 -139469 -133117"/>
    </vehicle>
    <vehicle id="5" type="bicycle" depart="5.00">
        <route edges="-322534 295285 -292865 -289553 -228171 -225559 -222838 222834 -217757 -164134 -161262 161260 -158750 121078 123111"/>
    </vehicle>
    <vehicle id="6" type="bicycle" depart="6.00">
        <route edges="-126975 -107965 107965 126975 -121874 121882 153093 155116 180495 183464 188556 191574 194168 197132 280945 -278843 278821 315866 -315866"/>
    </vehicle>
    <vehicle id="7" type="bicycle" depart="7.00">
        <route edges="235181 -235182 -225147 -222484 -183890 -177895 -175958 -165736 -163147 -111243 -110045 89050 -89061 -79627 -79615 -61689 61687 61690 -55435 -54651 -53532 58378 -57851 -32973 19791 -14847 -14842 15498 -14184 -13732 -12895 -12881 12893 16133"/>
    </vehicle>
    <vehicle id="8" type="bicycle" depart="8.00">
        <route edges="-3237 -2970 -2890 2824 2876 -2902 2904 -9515 15525 16148 -12883 12881 12895 13732 14184 -15498 14842 14847 -19791 32973 57851 -58378 53532 54651 55435 -61690 -61687 61689 79615 79627 89067 91773 -140128 140129 134606 -145969 -144818 140271 141852 158347 160746 197849 200487 200601 203047"/>
    </vehicle>
    <vehicle id="9" type="bicycle" depart="9.00">
        <route edges="40823 41489 51557 55375 56033 -66000 -65239 -45593 -35120 35122 47243 49178 -38126 -32531 32529 -29964 -29030 -16649 -22447 -22445 33261 34008 35003 36101 16572 -37011 -33977 33975 -33124 33122 36796 37751 40613 49860 -49861 49881 52619 53680 -73090 107126 -107126"/>
    </vehicle>
    <vehicle id="10" type="bicycle" depart="10.00">
        <route edges="403312 -403312 -399219 381330 -368323 -361659 -358799 -345852 -342990 -336918 336912 -333497 -316089 316077 -310527 310528 -321882 343112 -340150 -337095 337139 416164 -416153 -412032 -407198 438629 -447628 -444235 -378895 -309202 -305334 -287949 -278374 -275733 -273765 -241799 -239442 239430 285283 -285539 -221227 -218699 208427 -206339 -204015 204011 -218671 -218666 -203971 -201774 -183042 183040 196280 -196289 196288 212070 296379 315067 317795 315068 315103 317852 320792"/>
    </vehicle>
    <vehicle id="11" type="bicycle" depart="11.00">
        <route edges="-440707 440707 -379148 -329159 329134 332514 335516 -309233 -299268 -278386 -273785 -271688 -212070 -196288 196289 -196280 -183040 183042 201774 203971 218666 218671 -199127 199124 -162271 162269 118352 119967 -107917 -104177 104178 97660 99466 -96221 -96217 -94086 -92420 70185 -62297 -39223 -39216 -33491 -29174 -28353 -26798 -25836 -17784 -16094 -15473 -15469 -9848 -7402 -6906 -4486 -4189 6102 -6343 4481 4918 6676 9381 11659 12592 -5555 5232 -1764 1768 9839 11544 12190 -6528 6548 21513 25812 26659 42885 -42885 -26659"/>
    </vehicle>
    <vehicle id="12" type="bicycle" depart="12.00">
        <route edges="5970 6190 6528 6880 7267 -38230 38229 42247 42724 43928 51393 114988 136296 -136291 -121313 121309 158769 161271 182666 -181486 207828 209595 -259964 266010 277355 292886 -292893 292897 295332 -317440 325585 328402 409139 413536 425681 432849 436200 456300 -456300"/>
    </vehicle>
    <vehicle id="13" type="bicycle" depart="13.00">
        <route edges="-188384 -186016 186024 191168 306563 -303060 -248281 -172831 -171180 171178 -183465 -173896 -172850 -127103 127115 -129562 -127093 99601 101266 151551 155236 -162531 165168 -162373 -159676 -157452 -155020 135688 135720 155040 180473 -199187 -196633"/>
    </vehicle>
    <vehicle id="14" type="bicycle" depart="14.00">
        <route edges="450079 -450079 450071 465600 502315 -502300 -422208 422190 491190 -530178 530177 -308187 -304462 -301023 -298233 298241 314333 -314318 -301003 -289551 -228171 -225559 -222838 222834 -217757 -164134 -161262 -143743 -142361 -123423 -98950 -97362 -95657 -93699 -92089 -92077 92079 93675 -74711 74693 -84259 -83116 -64047 -63373 -55204 -53909 -50131 -42736 -42247 -32529 32531 38126 -49178 -47243 -35122 -34132 -44608 -44606 -35407 -24832 -20933 20937 21722 29462 21725 21728"/>
    </vehicle>
    <vehicle id="15" type="bicycle" depart="15.00">
        <route edges="405613 -405613 -363200 -360133 -338777 -335034 335032 -328715 328699 -332122 -328842 -260242 -258002 257996 280249 -280253 -158992 -156813 152918 -151104 -149404 123400 -123403 121330 -121309 -119580 119578 -116626 116628 118029 -113284 -111727 -98972 98968 -86852 -78707 -70023 -68618 -67382 -71965 -70377 -57660 -56897 56877 -52213 52199 -53325 70210 -68782 68806 70213 -67601 -66387 66375 -57635 -56867 56861 57622 78898 -120097 120101 121848 -157451 -155020 135688 135742 136846 -131588 -129015 129001 -118360 118364 141247 143012 193640 -193500 180352 181806 183056 -201763 201765 214161 216254 239765 263739 271716 280379 282498 306056 -335905 348269 348283"/>
    </vehicle>
    <vehicle id="16" type="bicycle" depart="16.00">
        <route edges="118754 153586 155311 157742 -103077 -101436 -88705 -87335 -66663 66649 -61522 61518 -49687 -31069 -29551 -15132 15498 -14184 -13732 -12895 -11907 -11053 -9975 -1248 -1086 202 -15 3 27 34 134 389 -1756 1764 3655 3658 -9711 9721 28181 31770 37167 41778 43030 -37029 38124 -59185 59187 59640 60615 75884"/>
    </vehicle>
    <vehicle id="17" type="bicycle" depart="17.00">
        <route edges="-478754 -470306 -436061 -382243 -435954 -432810 -295285 -292860 -217677 217675 230188 233080 -230118 230120 232810 -232813 232815 235669 -294940 -205011 205005 -192514 -187229 -185424 185428 187237 189629 -170199 170201 -169922 168040 -137244 -136193 136209 139029 152390 -166026 166025 168044"/>
    </vehicle>
    <vehicle id="18" type="bicycle" depart="18.00">
        <route edges="429318 -429318 -418304 -413996 -363198 -360133 -338777 -335034 335032 -328715 -326052 -285047 -282416 -280299 280295 -275577 -273701 -233433 -230463 -213577 -211646 -209744 -168952 168951 170782 -185594 215650 220674 -220425 220423 -222834 -182532 -179883 -178260 -176206 -174505 174491 222829 -232963 232963"/>
    </vehicle>
    <vehicle id="19" type="bicycle" depart="19.00">
        <route edges="464049 -381505 -381498 -369366 -365485 365483 369360 -403065 -398884 -394222 -389603 -337159 -319462 -313515 313513 -311152 -241073 241074 243253 -227677 -225012 225010 -222475 -222228 -219958 -179448 -165732 -163147 -111243 -110045 89050 -89061 -79627 -79615 -61689 61687 61690 -55435 -54651 -53532 58378 -57851 -32973 19791 -14847 -14842 15498 -14184 -13732 -12895 -12881 12893 -12899 32956 -32954 -14473 14472 25862 37454 -38388 -37190 -16790 -16090 16094 17782 -18571 18577 -44480 -42495 -42480 42493 43084 -42453 42479 56000 -56868 57645 66387 67601 73421 75002 76419 102908 121873 -124132 121866 136860 157470 -184576 -183325 -175448 175446 191170"/>
    </vehicle>
    <vehicle id="20" type="bicycle" depart="20.00">
        <route edges="300892 -300892 -298093 257541 259806 -169890 -145831 145833 -147063 -134462 134460 -105444 105448 148971 -147244"/>
    </vehicle>
    <vehicle id="21" type="bicycle" depart="21.00">
        <route edges="-330494 330498 337139 416164 -416153 -412032 -407198 438629 -447628 -444235 -378895 -309202 -305334 -287949 -278374 -275733 -273765 -241799 -239442 -236349 -162020 -159368 159362 -109613 -107797 -106337 106338 107915 113511 113520 114446 121773 123974 175284 177076 -184721 -184311 181763 -167374 -165197 -157634 157638 159971 162545 216885 -280953 -278843 -276251 276227 280949 283154 310221 397996 401922 458083 -462377 406559 -406443"/>
    </vehicle>
    <vehicle id="22" type="bicycle" depart="22.00">
        <route edges="-177913 177909 177914 148971 -189630 304412 -304373 -300628 -300611 300613 304247 -304245 -304241 -289383 289377 -334029 -330750 330754 334033 346298 -346298"/>
    </vehicle>
    <vehicle id="23" type="bicycle" depart="23.00">
        <route edges="-196050 -193351 -190732 190716 -190695 190715 214153 288001 -290396 -248020 -245045 245043 248019 -299282 397009 -392520 392518 -392518"/>
    </vehicle>
    <vehicle id="24" type="bicycle" depart="24.00">
        <route edges="218701 226164 228542 233856 256229 266810 269149 278645 280634 342298 345372 -347877 -287817 -271663 -268844 268848 -275734 275733 278374 287949 305334 309202 378895 444235 447628 -438629 407198 412032 416153 -416164 -337139 -330498 -324737 324731 -324618 -286336 -185201 -183763 -182287 -180804 -148605 148603 -148599 -140101 169703 212654 214823 231671 -234287 -231354 231352 234285 -224787 224781 -246358 -243235 307379 310715 313661 319581 -303817 303815 349839 352500 356382 381476 -381309 -346085 -343180 337163 389603 394222 398858 403069 407223 -408094 412704 420642 482088 485484 -485484"/>
    </vehicle>
    <vehicle id="25" type="bicycle" depart="25.00">
        <route edges="-471258 -392787 -388475 -360749 -354320 -351275 -348302 348300 -348299 348295 388458 429999 433658 437096 457736 512559 516711 -553316 -549128 -457126 470956 474894 479485 483285 497804 -494572 -489163 -485034 -481401 -476879 -472692 -442043 -438425 -434686 -431142 431144 451820 -455005 -427665 -345858 -342996 342990 345852 358799 361659 368323 -381330 -377294 -372759 -368859 -313644 313654 359177 365064 -368839 330563 -327674 -325022"/>
    </vehicle>
    <vehicle id="26" type="bicycle" depart="26.00">
        <route edges="-363851 -351266 -348299 348295 388458 -383915 -342237 342238 351295 354358 -414282 -323027 -320444 -317631 -314922 -280336 -278364 -254070 254074 275736 285291 286573 -243102 -229268 -181018 -179330 -177777 -175836 -174189 -173186 -150342 -134432 -132409 -131250 90773 92259 -83495 83503 -83607 83606 -68084 68082 -42526 -41857 -36624 35547 -35539 -30576 46401 47943 55397"/>
    </vehicle>
    <vehicle id="27" type="bicycle" depart="27.00">
        <route edges="232369 -232369 -229862 -227804 -225270 -222551 222491 -212958 -165908 -163378 -137198 -136180 -134577 134587 136187 -122589 122595 139044 170080 -168207 -166051 -125265 -103332 103330 105444 -134460 134462 147063 -145833 145831 169890 -259806 -257541 -238598 -213371 -211357 179868 181431 -215480 -222800 222818"/>
    </vehicle>
    <vehicle id="28" type="bicycle" depart="28.00">
        <route edges="-273983 -271856 -248085 248071 -251147 -216268 -214161 -201765 201763 -183056 -181806 -180352 193500 -193640 -143012 -141247 -118364 118360 -129001 129015 131588 -136846 -135742 -135688 155020 157451 -121848 -120101 120097 -78898 -57622 -56861 56867 57635 -66375 66387 67601 -70213 -68806 68782 -70210 53325 -52199 52213 -56877 56897 57660 -66000 -65239 -45593 -35120 35122 47243 49178 -38126 -32531 32529 -29964 29962 51387 53909 55204 63373 64047 83116 -97351 -95645 95637 97336 98934 102264 103542 -103668 103672 114281 115119 116765 -166899 166934 168706 170784 223223 244155 247334 275567 278202 293264 295772 -317587 320355 322753 325907 347506"/>
    </vehicle>
    <vehicle id="29" type="bicycle" depart="29.00">
        <route edges="-265485 -262616 -246120 246132 259478 262634 267995 352397 -355742 -346196 -346085 346089 -346246 349864 352490 356277 359317 394539 485438 489660 500647 -500647"/>
    </vehicle>
    <vehicle id="30" type="bicycle" depart="30.00">
        <route edges="91202 92842 -92842 -91202 -89871 -88645 -58122 65529 66404 69044 70387 86001 127228 139954 146865 -155274 155278 -155280 159993 184801 226889 228966 -210531 210543 256631 -256360 256352 258676"/>
    </vehicle>
    <vehicle id="31" type="bicycle" depart="31.00">
        <route edges="140442 -140442 114124 -114900 107123 108553 110383 114885 -134463 -132434 -132432 108289 110339 134460 -105444 -103330 103332 125265 147244 -189630 304412 -304373 -300628 -300611 300613 304247 -304245 304243 307558"/>
    </vehicle>
    <vehicle id="32" type="bicycle" depart="32.00">
        <route edges="444766 -444766 -433742 -433732 433733 -389188 -384249 384246 -380605 -339818 286041 288679 320567 323154 -375237 -371002 -323557 354193 392550"/>
    </vehicle>
    <vehicle id="33" type="bicycle" depart="33.00">
        <route edges="-331197 331201 382137 -442738 -439416 -408489 -404565 404583 413102 417289 421448 525507 529971 547926 -544435 -506795 -502100 502084 -373894 373884 -322557 -322534 295285 -292865 -289553 -228171 -225559 -222838 222834 -220423 220425 -220674 220673 220777 -187562 -185599 -166902 166899 -140784 -139469 137879 139465 -140640 -136320 136311 -132746 -130876 -128349 123400 -123403 121330 -121309 -119580 119578 121314 121322 151076 -149626 149622 -147575 -133223 -131010 -128485 -128482 131004 -131977 -122163 -120369 -103047 103041 104719 122145 127355 129810 -139958 157673 -155276 155278 157676 -159683 -139907 -135755"/>
    </vehicle>
    <vehicle id="34" type="bicycle" depart="34.00">
        <route edges="-415210 -410821 -406589 380541 384230 423247 -426964 -283152 -280949 -276227 -274463 -197136 -194168 -194164 -139927 139929 -141495 -127103 127115 -129562 -127093 -89766 -88533 124141 -149824 149823 -121842 -120101 -119712 119711 -116831 -111893 -109268 100848 -68771 -62299 53318 54385 63560 -64191 64193 65268 71717 73277 74870 84781 85821 88373 89600 -88339 88347 90773 92259 -83495 83503 -83607 83606 -68084 68082 78022 79385 49814 59500 60208 61526 88825 -93365 -89057 -86413 -85218 86420 -86410 83867 85194 86405 87655 110045 111243 163147 165732 179448 219958 222228 222475 -225010 225012 227677 -243253 -241074 241073 337578 -340558 -330747 365523 381540 -381536"/>
    </vehicle>
    <vehicle id="35" type="bicycle" depart="35.00">
        <route edges="-31596 -31134 -20562 -8547 -2423 -1986 -1937 3632 -11095 -10440 -8068 -7130 7134 -7140 7150 8569 9111 -6076 6074 14023 14430 22445 22447 16649 29030 29972 -42722 42724 43928 51393 -60616 60617 114928 118023 118025 121314 121322 151076 -149626 149622 149630 151245 154734 157046 236338 239391 -322705 328426 -327119 327097 -336770 -333051 354834 354840 358414 384592 389350 393551 398191 415541 451318 -454843 -451310 454871 458603 519162 537924 559079"/>
    </vehicle>
    <vehicle id="36" type="bicycle" depart="36.00">
        <route edges="479485 483282 -305338 -287955 -278374 -275733 -273765 -241799 -239442 -236349 -162020 -159368 159362 -109613 -107797 -106337 106338 107915 113511 113520 114446 121773 123974 175284 177076 -184721 -183460 -165176 162531 -155236 -151551 -101266 -99601 127093 129562 -127115 127103 172850 173896 183465 -171178 171180 172831 248281 -245304 -242547 242541 -219116 219110 276193 -278669 282917 285691 296832 332797 433693 -433693"/>
    </vehicle>
    <vehicle id="37" type="bicycle" depart="37.00">
        <route edges="24191 25528 26270 33817 63314 -91780 -91776 93383 95184 108287 110339 134460 -105444 -103330 103332 125265 147244 -189630 304412 -304373 -300628 -300611 300613 304247 -304245 -304241 294987 297798 300596 373282 377517 381555 385565 390034 464503 469630 489930 495962 501095 505754 520059 525176 -525176 -520059"/>
    </vehicle>
    <vehicle id="38" type="bicycle" depart="38.00">
        <route edges="5207 -5207 -4902 4888 5191 5392 5822 14023 14430 22445 22447 16649 29030 29964 -32529 32531 38126 -78712"/>
    </vehicle>
    <vehicle id="39" type="bicycle" depart="39.00">
        <route edges="-361806 -330522 -291966 -291956 -286577 -283710 283706 288956 291955 300258 372528 377075 -377073 -364822 -364821 -330499 -327482 -286328 -185201 -183763 -182287 -180804 -148605 148603 -148599 -140101 169703 212654 214823 231671 -234287 -231354 231352 234285 -224787 224781 -246358 -243235 307379 310715 313667 316459 359353 362158 399538 -403300 -359061 359063 -359063"/>
    </vehicle>
    <vehicle id="40" type="bicycle" depart="40.00">
        <route edges="144836 -144824 -143563 -116208 116196 137188 144818 145969 -134606 -140129 140128 -91773 -89067 -79627 -79615 -61689 61687 61690 -55435 -54651 -53532 58378 -57851 -32973 19791 -14847 -14842 15498 -14184 -13732 -12895 -12881 12893 -12899 32956 -32954 -14473 14472 25862 37454 -38388 -37190 -16790 -16090 16094 17782 -18571 18577 -44480 -42495 -42480 42493 43084 -42453 42479 56000 -56868 57645 66387 67601 73421 75002 76419 102908 121873 -124132 121866 136860 157470 162483 165021 182069 -183308 183310 184571 186018 -191052 191060 219110 294369 329781 371429 375801 380046 -380046 -375801"/>
    </vehicle>
    <vehicle id="41" type="bicycle" depart="41.00">
        <route edges="167059 239377 239391 280311 -282117 282119 298287 -301152 -277732 -277614 -273447 275500 277629 280201 338239 341348 343987 409139 413534 425676 425679 428916 478870 482921 -535060 -530421 -515775 515773"/>
    </vehicle>
    <vehicle id="42" type="bicycle" depart="42.00">
        <route edges="-498219 498219 527282 531830 -536211 -444339 -444332 447885 450437 457280 -461295 -401061 -374927 -370848 -268864 -266217 -247680 -239557 -204350 -167376 167372 -162534 -155236 -151551 149966 -151454 -149830 -147958 -146621 -145646 -94315 -57622 -56861 -53331 -52195 -45938 -45819 -33402"/>
    </vehicle>
    <vehicle id="43" type="bicycle" depart="43.00">
        <route edges="97657 -97657 -94084 -88386 -86926 -68757 -64210 -63556 -62291 63560 -64191 64193 65268 71717 73277 74870 84781 85821 88373 89600 -88339 -86871 -83436 -82686 -81290 -64593 -53358 -52341 -16132 -15507 -12893 12883"/>
    </vehicle>
    <vehicle id="44" type="bicycle" depart="44.00">
        <route edges="-187009 187021 189235 -185262 -163154 -163150 -111247 111243 163147 165732 -176040 -174241 158347 -158232 158230 185380 -185403 211312 -222491 222490 -148652 148648 -148648"/>
    </vehicle>
    <vehicle id="45" type="bicycle" depart="45.00">
        <route edges="-204889 -202786 204897 -204881 -185280 185285 187021 189236 192189 194736 197701 200238 202668 231971 -231352 231354 243065"/>
    </vehicle>
    <vehicle id="46" type="bicycle" depart="46.00">
        <route edges="387987 392129 -388047 -383593 -379179 379161 383586 348279 351250 -248069 248071 -251147 -216268 -214161 214163 -216496 -214287 -212201 -210435 -208430 -208427 218699 221227 285539 -285283 -239430 239442 241799 273765 275733 278374 287949 305334 309202 378895 444235 447628 -438629 407198 412032 416153 -416164 -337139 337095 340150 -343112 321882 -310528 310527 -310519 -283634 237260 240457 294630 310501 313350 355046 358781 -355033 354993 -294824 294828 355960 365064 372755 377242 481662 500369 555582 -551005"/>
    </vehicle>
    <vehicle id="47" type="bicycle" depart="47.00">
        <route edges="-16146 16138 21866 57791 -58249 52343 53358 64593 81290 82686 83436 86871 88339 92257 133345 135297 136555 -128561 -126068 -96094 -94060 94062 121495 123665 126071 157308 159362 -164949 -162047 164965 167197 201430 -199135 -185896 -199124 199127 -218671 -218666 -203971 -201774 -183042 183040 -193504 -190825 -184330 184334 -190695 190715 214153 288001 -290396 -248020 248026 251035 260605 263723 329301 354166 453830 457330 475000 479568 503136 -503136"/>
    </vehicle>
    <vehicle id="48" type="bicycle" depart="48.00">
        <route edges="96952 -96952 -88825 -61526 -60208 -59500 -49687 -31069 -29551 -15132 15498 -14184 -13732 -12895 -12881 12883 -16148 -15525 9515 -2904 2902 -2876 -2824 2890 2970 5546 5882 9503 11659 12604 13546 19968 20001 20933 24832 35407 77987 -77799 -66001 66039 67382 68618 70023 90756 92238 125931 -128482 131004 -131977 145709 147010"/>
    </vehicle>
    <vehicle id="49" type="bicycle" depart="49.00">
        <route edges="71722 -71722 80425 -80302 -57493 -47356 -45814 -39108 -38404 -37190 32569 32582 -33376 -4484 -4189 6102 -6343 4481 4918 6676 9381 11659 12592 -5555 5232 3655 3658 -9711 9721 28181 31770 37167 41778 43030 -37029 38124 -59185 59187 59640 60615 75884 114935 116626 -119578 119580 121309 158769 161271 233383 -233416 -205639 205637 241611 280258 -325655 -322726 322724 338264 338268 -338926 -290256 290254 341865 344938 479465 507417 512547 549108 -548979 -545009 474804 479438"/>
    </vehicle>
</routes>
