<?xml version="1.0" encoding="UTF-8"?>

<!-- generated on 2024-01-10 14:08:13 by Eclipse SUMO netedit Version v1_19_0+0143-4ff360ee235
<configuration xmlns:xsi="http://www.w3.org/2001/XMLSchema-instance" xsi:noNamespaceSchemaLocation="http://sumo.dlr.de/xsd/neteditConfiguration.xsd">

    <input>
        <sumo-net-file value="/Users/yara/Documents/UTWENTE/Academic Research skills/SpyingOnCyclists/sumoFiles/large/leftbottom.net.xml"/>
    </input>

    <output>
        <output-file value="/Users/yara/Documents/UTWENTE/Academic Research skills/SpyingOnCyclists/sumoFiles/large/leftbottom.net.xml"/>
    </output>

    <processing>
        <geometry.min-radius.fix.railways value="false"/>
        <geometry.max-grade.fix value="false"/>
        <offset.disable-normalization value="true"/>
        <lefthand value="0"/>
    </processing>

    <junctions>
        <no-turnarounds value="true"/>
        <junctions.corner-detail value="5"/>
        <junctions.limit-turn-speed value="5.50"/>
        <rectangular-lane-cut value="0"/>
    </junctions>

    <pedestrian>
        <walkingareas value="0"/>
    </pedestrian>

</configuration>
-->

<net version="1.16" junctionCornerDetail="5" limitTurnSpeed="5.50" xmlns:xsi="http://www.w3.org/2001/XMLSchema-instance" xsi:noNamespaceSchemaLocation="http://sumo.dlr.de/xsd/net_file.xsd">

    <location netOffset="2760.00,2420.00" convBoundary="940.00,460.00,1560.00,1160.00" origBoundary="-2760.00,-2420.00,2960.00,2220.00" projParameter="!"/>

    <edge id=":304836_0" function="internal">
        <lane id=":304836_0_0" index="0" speed="6.16" length="10.83" shape="1404.79,1157.47 1402.24,1159.41 1400.06,1159.75 1398.26,1158.47 1396.84,1155.59"/>
    </edge>
    <edge id=":304836_1" function="internal">
        <lane id=":304836_1_0" index="0" speed="3.65" length="1.44" shape="1404.79,1157.47 1403.38,1157.75"/>
    </edge>
    <edge id=":304836_4" function="internal">
        <lane id=":304836_4_0" index="0" speed="3.65" length="3.23" shape="1403.38,1157.75 1402.53,1157.47 1402.25,1156.62 1402.53,1155.21"/>
    </edge>
    <edge id=":304836_2" function="internal">
        <lane id=":304836_2_0" index="0" speed="3.95" length="3.61" shape="1399.88,1154.58 1400.35,1155.54 1400.95,1155.97 1401.68,1155.85 1402.53,1155.21"/>
    </edge>
    <edge id=":304836_3" function="internal">
        <lane id=":304836_3_0" index="0" speed="3.65" length="1.31" shape="1399.88,1154.58 1399.54,1155.84"/>
    </edge>
    <edge id=":304836_5" function="internal">
        <lane id=":304836_5_0" index="0" speed="3.65" length="3.37" shape="1399.54,1155.84 1399.50,1155.97 1398.87,1156.61 1397.98,1156.48 1396.84,1155.59"/>
    </edge>
    <edge id=":320348_0" function="internal">
        <lane id=":320348_0_0" index="0" speed="3.65" length="4.67" shape="1520.00,1098.40 1521.20,1099.20 1521.60,1100.00 1521.20,1100.80 1520.00,1101.60"/>
    </edge>
    <edge id=":322745_0" function="internal">
        <lane id=":322745_0_0" index="0" speed="12.73" length="15.02" shape="1465.33,1101.60 1462.80,1102.09 1459.87,1103.56 1456.55,1106.00 1452.84,1109.42"/>
    </edge>
    <edge id=":322745_1" function="internal">
        <lane id=":322745_1_0" index="0" speed="13.89" length="17.05" shape="1465.33,1101.60 1448.27,1101.60"/>
    </edge>
    <edge id=":322745_2" function="internal">
        <lane id=":322745_2_0" index="0" speed="3.65" length="1.44" shape="1465.33,1101.60 1464.13,1100.80"/>
    </edge>
    <edge id=":322745_9" function="internal">
        <lane id=":322745_9_0" index="0" speed="3.65" length="3.23" shape="1464.13,1100.80 1463.73,1100.00 1464.13,1099.20 1465.33,1098.40"/>
    </edge>
    <edge id=":322745_3" function="internal">
        <lane id=":322745_3_0" index="0" speed="13.89" length="17.05" shape="1448.27,1098.40 1465.33,1098.40"/>
    </edge>
    <edge id=":322745_4" function="internal">
        <lane id=":322745_4_0" index="0" speed="7.42" length="6.00" shape="1448.27,1098.40 1454.24,1099.07"/>
    </edge>
    <edge id=":322745_5" function="internal">
        <lane id=":322745_5_0" index="0" speed="3.65" length="1.44" shape="1448.27,1098.40 1449.47,1099.20"/>
    </edge>
    <edge id=":322745_10" function="internal">
        <lane id=":322745_10_0" index="0" speed="7.42" length="13.30" shape="1454.24,1099.07 1454.41,1099.09 1457.21,1101.16 1456.69,1104.60 1452.84,1109.42"/>
    </edge>
    <edge id=":322745_11" function="internal">
        <lane id=":322745_11_0" index="0" speed="3.65" length="3.23" shape="1449.47,1099.20 1449.87,1100.00 1449.47,1100.80 1448.27,1101.60"/>
    </edge>
    <edge id=":322745_6" function="internal">
        <lane id=":322745_6_0" index="0" speed="5.47" length="9.74" shape="1450.58,1107.16 1452.52,1104.73 1452.78,1102.99 1451.37,1101.95 1448.27,1101.60"/>
    </edge>
    <edge id=":322745_7" function="internal">
        <lane id=":322745_7_0" index="0" speed="13.73" length="17.52" shape="1450.58,1107.16 1454.78,1103.33 1458.64,1100.59 1462.16,1098.95 1465.33,1098.40"/>
    </edge>
    <edge id=":322745_8" function="internal">
        <lane id=":322745_8_0" index="0" speed="3.65" length="4.67" shape="1450.58,1107.16 1451.99,1106.88 1452.84,1107.16 1453.12,1108.01 1452.84,1109.42"/>
    </edge>
    <edge id=":325900_0" function="internal">
        <lane id=":325900_0_0" index="0" speed="13.89" length="16.01" shape="1381.15,1108.51 1380.05,1104.76 1379.18,1100.75 1378.61,1096.70 1378.40,1092.80"/>
    </edge>
    <edge id=":325900_1" function="internal">
        <lane id=":325900_1_0" index="0" speed="7.55" length="4.80" shape="1381.15,1108.51 1380.34,1104.09 1380.43,1103.79"/>
    </edge>
    <edge id=":325900_2" function="internal">
        <lane id=":325900_2_0" index="0" speed="3.65" length="1.44" shape="1381.15,1108.51 1381.53,1107.12"/>
    </edge>
    <edge id=":325900_9" function="internal">
        <lane id=":325900_9_0" index="0" speed="7.55" length="10.79" shape="1380.43,1103.79 1381.29,1100.93 1383.99,1099.03 1388.44,1098.40"/>
    </edge>
    <edge id=":325900_10" function="internal">
        <lane id=":325900_10_0" index="0" speed="3.65" length="3.23" shape="1381.53,1107.12 1382.16,1106.49 1383.05,1106.62 1384.19,1107.50"/>
    </edge>
    <edge id=":325900_3" function="internal">
        <lane id=":325900_3_0" index="0" speed="5.92" length="9.10" shape="1388.44,1101.60 1385.84,1101.97 1384.27,1103.08 1383.72,1104.92 1384.19,1107.50"/>
    </edge>
    <edge id=":325900_4" function="internal">
        <lane id=":325900_4_0" index="0" speed="8.26" length="15.20" shape="1388.44,1101.60 1384.05,1101.05 1380.91,1099.40 1379.03,1096.65 1378.40,1092.80"/>
    </edge>
    <edge id=":325900_5" function="internal">
        <lane id=":325900_5_0" index="0" speed="3.65" length="4.67" shape="1388.44,1101.60 1387.24,1100.80 1386.84,1100.00 1387.24,1099.20 1388.44,1098.40"/>
    </edge>
    <edge id=":325900_6" function="internal">
        <lane id=":325900_6_0" index="0" speed="6.83" length="10.05" shape="1381.60,1092.80 1382.03,1095.25 1383.31,1097.00 1385.45,1098.05 1388.44,1098.40"/>
    </edge>
    <edge id=":325900_7" function="internal">
        <lane id=":325900_7_0" index="0" speed="13.89" length="14.99" shape="1381.60,1092.80 1381.78,1096.54 1382.30,1100.25 1383.12,1103.91 1384.19,1107.50"/>
    </edge>
    <edge id=":325900_8" function="internal">
        <lane id=":325900_8_0" index="0" speed="3.65" length="1.44" shape="1381.60,1092.80 1380.80,1094.00"/>
    </edge>
    <edge id=":325900_11" function="internal">
        <lane id=":325900_11_0" index="0" speed="3.65" length="3.23" shape="1380.80,1094.00 1380.00,1094.40 1379.20,1094.00 1378.40,1092.80"/>
    </edge>
    <edge id=":325912_0" function="internal">
        <lane id=":325912_0_0" index="0" speed="3.65" length="4.67" shape="1540.96,1078.72 1541.44,1080.08 1541.28,1080.96 1540.48,1081.36 1539.04,1081.28"/>
    </edge>
    <edge id=":328575_0" function="internal">
        <lane id=":328575_0_0" index="0" speed="6.51" length="9.03" shape="1378.40,1027.20 1378.05,1024.75 1377.00,1023.00 1375.25,1021.95 1372.80,1021.60"/>
    </edge>
    <edge id=":328575_1" function="internal">
        <lane id=":328575_1_0" index="0" speed="8.00" length="14.19" shape="1378.40,1027.20 1378.95,1023.35 1380.60,1020.60 1383.35,1018.95 1387.20,1018.40"/>
    </edge>
    <edge id=":328575_2" function="internal">
        <lane id=":328575_2_0" index="0" speed="3.65" length="4.67" shape="1378.40,1027.20 1379.20,1026.00 1380.00,1025.60 1380.80,1026.00 1381.60,1027.20"/>
    </edge>
    <edge id=":328575_3" function="internal">
        <lane id=":328575_3_0" index="0" speed="6.51" length="9.03" shape="1387.20,1021.60 1384.75,1021.95 1383.00,1023.00 1381.95,1024.75 1381.60,1027.20"/>
    </edge>
    <edge id=":328575_4" function="internal">
        <lane id=":328575_4_0" index="0" speed="13.89" length="14.40" shape="1387.20,1021.60 1372.80,1021.60"/>
    </edge>
    <edge id=":328575_5" function="internal">
        <lane id=":328575_5_0" index="0" speed="3.65" length="1.44" shape="1387.20,1021.60 1386.00,1020.80"/>
    </edge>
    <edge id=":328575_9" function="internal">
        <lane id=":328575_9_0" index="0" speed="3.65" length="3.23" shape="1386.00,1020.80 1385.60,1020.00 1386.00,1019.20 1387.20,1018.40"/>
    </edge>
    <edge id=":328575_6" function="internal">
        <lane id=":328575_6_0" index="0" speed="13.89" length="14.40" shape="1372.80,1018.40 1387.20,1018.40"/>
    </edge>
    <edge id=":328575_7" function="internal">
        <lane id=":328575_7_0" index="0" speed="8.00" length="4.07" shape="1372.80,1018.40 1376.65,1018.95 1376.80,1019.04"/>
    </edge>
    <edge id=":328575_8" function="internal">
        <lane id=":328575_8_0" index="0" speed="3.65" length="1.44" shape="1372.80,1018.40 1374.00,1019.20"/>
    </edge>
    <edge id=":328575_10" function="internal">
        <lane id=":328575_10_0" index="0" speed="8.00" length="10.13" shape="1376.80,1019.04 1379.40,1020.60 1381.05,1023.35 1381.60,1027.20"/>
    </edge>
    <edge id=":328575_11" function="internal">
        <lane id=":328575_11_0" index="0" speed="3.65" length="3.23" shape="1374.00,1019.20 1374.40,1020.00 1374.00,1020.80 1372.80,1021.60"/>
    </edge>
    <edge id=":341767_0" function="internal">
        <lane id=":341767_0_0" index="0" speed="6.51" length="9.03" shape="1438.40,1027.20 1438.05,1024.75 1437.00,1023.00 1435.25,1021.95 1432.80,1021.60"/>
    </edge>
    <edge id=":341767_1" function="internal">
        <lane id=":341767_1_0" index="0" speed="13.89" length="14.40" shape="1438.40,1027.20 1438.40,1012.80"/>
    </edge>
    <edge id=":341767_2" function="internal">
        <lane id=":341767_2_0" index="0" speed="8.00" length="4.07" shape="1438.40,1027.20 1438.95,1023.35 1439.04,1023.20"/>
    </edge>
    <edge id=":341767_3" function="internal">
        <lane id=":341767_3_0" index="0" speed="3.65" length="1.44" shape="1438.40,1027.20 1439.20,1026.00"/>
    </edge>
    <edge id=":341767_16" function="internal">
        <lane id=":341767_16_0" index="0" speed="8.00" length="10.13" shape="1439.04,1023.20 1440.60,1020.60 1443.35,1018.95 1447.20,1018.40"/>
    </edge>
    <edge id=":341767_17" function="internal">
        <lane id=":341767_17_0" index="0" speed="3.65" length="3.23" shape="1439.20,1026.00 1440.00,1025.60 1440.80,1026.00 1441.60,1027.20"/>
    </edge>
    <edge id=":341767_4" function="internal">
        <lane id=":341767_4_0" index="0" speed="6.51" length="9.03" shape="1447.20,1021.60 1444.75,1021.95 1443.00,1023.00 1441.95,1024.75 1441.60,1027.20"/>
    </edge>
    <edge id=":341767_5" function="internal">
        <lane id=":341767_5_0" index="0" speed="13.89" length="14.40" shape="1447.20,1021.60 1432.80,1021.60"/>
    </edge>
    <edge id=":341767_6" function="internal">
        <lane id=":341767_6_0" index="0" speed="8.00" length="14.19" shape="1447.20,1021.60 1443.35,1021.05 1440.60,1019.40 1438.95,1016.65 1438.40,1012.80"/>
    </edge>
    <edge id=":341767_7" function="internal">
        <lane id=":341767_7_0" index="0" speed="3.65" length="4.67" shape="1447.20,1021.60 1446.00,1020.80 1445.60,1020.00 1446.00,1019.20 1447.20,1018.40"/>
    </edge>
    <edge id=":341767_8" function="internal">
        <lane id=":341767_8_0" index="0" speed="6.51" length="9.03" shape="1441.60,1012.80 1441.95,1015.25 1443.00,1017.00 1444.75,1018.05 1447.20,1018.40"/>
    </edge>
    <edge id=":341767_9" function="internal">
        <lane id=":341767_9_0" index="0" speed="13.89" length="14.40" shape="1441.60,1012.80 1441.60,1027.20"/>
    </edge>
    <edge id=":341767_10" function="internal">
        <lane id=":341767_10_0" index="0" speed="8.00" length="4.07" shape="1441.60,1012.80 1441.05,1016.65 1440.96,1016.80"/>
    </edge>
    <edge id=":341767_11" function="internal">
        <lane id=":341767_11_0" index="0" speed="3.65" length="1.44" shape="1441.60,1012.80 1440.80,1014.00"/>
    </edge>
    <edge id=":341767_18" function="internal">
        <lane id=":341767_18_0" index="0" speed="8.00" length="10.13" shape="1440.96,1016.80 1439.40,1019.40 1436.65,1021.05 1432.80,1021.60"/>
    </edge>
    <edge id=":341767_19" function="internal">
        <lane id=":341767_19_0" index="0" speed="3.65" length="3.23" shape="1440.80,1014.00 1440.00,1014.40 1439.20,1014.00 1438.40,1012.80"/>
    </edge>
    <edge id=":341767_12" function="internal">
        <lane id=":341767_12_0" index="0" speed="6.51" length="9.03" shape="1432.80,1018.40 1435.25,1018.05 1437.00,1017.00 1438.05,1015.25 1438.40,1012.80"/>
    </edge>
    <edge id=":341767_13" function="internal">
        <lane id=":341767_13_0" index="0" speed="13.89" length="14.40" shape="1432.80,1018.40 1447.20,1018.40"/>
    </edge>
    <edge id=":341767_14" function="internal">
        <lane id=":341767_14_0" index="0" speed="8.00" length="14.19" shape="1432.80,1018.40 1436.65,1018.95 1439.40,1020.60 1441.05,1023.35 1441.60,1027.20"/>
    </edge>
    <edge id=":341767_15" function="internal">
        <lane id=":341767_15_0" index="0" speed="3.65" length="4.67" shape="1432.80,1018.40 1434.00,1019.20 1434.40,1020.00 1434.00,1020.80 1432.80,1021.60"/>
    </edge>
    <edge id=":341775_0" function="internal">
        <lane id=":341775_0_0" index="0" speed="6.51" length="9.03" shape="1338.40,1027.20 1338.05,1024.75 1337.00,1023.00 1335.25,1021.95 1332.80,1021.60"/>
    </edge>
    <edge id=":341775_1" function="internal">
        <lane id=":341775_1_0" index="0" speed="13.89" length="14.40" shape="1338.40,1027.20 1338.40,1012.80"/>
    </edge>
    <edge id=":341775_2" function="internal">
        <lane id=":341775_2_0" index="0" speed="8.00" length="4.07" shape="1338.40,1027.20 1338.95,1023.35 1339.04,1023.20"/>
    </edge>
    <edge id=":341775_3" function="internal">
        <lane id=":341775_3_0" index="0" speed="3.65" length="1.44" shape="1338.40,1027.20 1339.20,1026.00"/>
    </edge>
    <edge id=":341775_16" function="internal">
        <lane id=":341775_16_0" index="0" speed="8.00" length="10.13" shape="1339.04,1023.20 1340.60,1020.60 1343.35,1018.95 1347.20,1018.40"/>
    </edge>
    <edge id=":341775_17" function="internal">
        <lane id=":341775_17_0" index="0" speed="3.65" length="3.23" shape="1339.20,1026.00 1340.00,1025.60 1340.80,1026.00 1341.60,1027.20"/>
    </edge>
    <edge id=":341775_4" function="internal">
        <lane id=":341775_4_0" index="0" speed="6.51" length="9.03" shape="1347.20,1021.60 1344.75,1021.95 1343.00,1023.00 1341.95,1024.75 1341.60,1027.20"/>
    </edge>
    <edge id=":341775_5" function="internal">
        <lane id=":341775_5_0" index="0" speed="13.89" length="14.40" shape="1347.20,1021.60 1332.80,1021.60"/>
    </edge>
    <edge id=":341775_6" function="internal">
        <lane id=":341775_6_0" index="0" speed="8.00" length="14.19" shape="1347.20,1021.60 1343.35,1021.05 1340.60,1019.40 1338.95,1016.65 1338.40,1012.80"/>
    </edge>
    <edge id=":341775_7" function="internal">
        <lane id=":341775_7_0" index="0" speed="3.65" length="4.67" shape="1347.20,1021.60 1346.00,1020.80 1345.60,1020.00 1346.00,1019.20 1347.20,1018.40"/>
    </edge>
    <edge id=":341775_8" function="internal">
        <lane id=":341775_8_0" index="0" speed="6.51" length="9.03" shape="1341.60,1012.80 1341.95,1015.25 1343.00,1017.00 1344.75,1018.05 1347.20,1018.40"/>
    </edge>
    <edge id=":341775_9" function="internal">
        <lane id=":341775_9_0" index="0" speed="13.89" length="14.40" shape="1341.60,1012.80 1341.60,1027.20"/>
    </edge>
    <edge id=":341775_10" function="internal">
        <lane id=":341775_10_0" index="0" speed="8.00" length="4.07" shape="1341.60,1012.80 1341.05,1016.65 1340.96,1016.80"/>
    </edge>
    <edge id=":341775_11" function="internal">
        <lane id=":341775_11_0" index="0" speed="3.65" length="1.44" shape="1341.60,1012.80 1340.80,1014.00"/>
    </edge>
    <edge id=":341775_18" function="internal">
        <lane id=":341775_18_0" index="0" speed="8.00" length="10.13" shape="1340.96,1016.80 1339.40,1019.40 1336.65,1021.05 1332.80,1021.60"/>
    </edge>
    <edge id=":341775_19" function="internal">
        <lane id=":341775_19_0" index="0" speed="3.65" length="3.23" shape="1340.80,1014.00 1340.00,1014.40 1339.20,1014.00 1338.40,1012.80"/>
    </edge>
    <edge id=":341775_12" function="internal">
        <lane id=":341775_12_0" index="0" speed="6.51" length="9.03" shape="1332.80,1018.40 1335.25,1018.05 1337.00,1017.00 1338.05,1015.25 1338.40,1012.80"/>
    </edge>
    <edge id=":341775_13" function="internal">
        <lane id=":341775_13_0" index="0" speed="13.89" length="14.40" shape="1332.80,1018.40 1347.20,1018.40"/>
    </edge>
    <edge id=":341775_14" function="internal">
        <lane id=":341775_14_0" index="0" speed="8.00" length="14.19" shape="1332.80,1018.40 1336.65,1018.95 1339.40,1020.60 1341.05,1023.35 1341.60,1027.20"/>
    </edge>
    <edge id=":341775_15" function="internal">
        <lane id=":341775_15_0" index="0" speed="3.65" length="4.67" shape="1332.80,1018.40 1334.00,1019.20 1334.40,1020.00 1334.00,1020.80 1332.80,1021.60"/>
    </edge>
    <edge id=":344500_0" function="internal">
        <lane id=":344500_0_0" index="0" speed="6.51" length="9.03" shape="1438.40,947.20 1438.05,944.75 1437.00,943.00 1435.25,941.95 1432.80,941.60"/>
    </edge>
    <edge id=":344500_1" function="internal">
        <lane id=":344500_1_0" index="0" speed="13.89" length="14.40" shape="1438.40,947.20 1438.40,932.80"/>
    </edge>
    <edge id=":344500_2" function="internal">
        <lane id=":344500_2_0" index="0" speed="8.00" length="4.07" shape="1438.40,947.20 1438.95,943.35 1439.04,943.20"/>
    </edge>
    <edge id=":344500_3" function="internal">
        <lane id=":344500_3_0" index="0" speed="3.65" length="1.44" shape="1438.40,947.20 1439.20,946.00"/>
    </edge>
    <edge id=":344500_16" function="internal">
        <lane id=":344500_16_0" index="0" speed="8.00" length="10.13" shape="1439.04,943.20 1440.60,940.60 1443.35,938.95 1447.20,938.40"/>
    </edge>
    <edge id=":344500_17" function="internal">
        <lane id=":344500_17_0" index="0" speed="3.65" length="3.23" shape="1439.20,946.00 1440.00,945.60 1440.80,946.00 1441.60,947.20"/>
    </edge>
    <edge id=":344500_4" function="internal">
        <lane id=":344500_4_0" index="0" speed="6.51" length="9.03" shape="1447.20,941.60 1444.75,941.95 1443.00,943.00 1441.95,944.75 1441.60,947.20"/>
    </edge>
    <edge id=":344500_5" function="internal">
        <lane id=":344500_5_0" index="0" speed="13.89" length="14.40" shape="1447.20,941.60 1432.80,941.60"/>
    </edge>
    <edge id=":344500_6" function="internal">
        <lane id=":344500_6_0" index="0" speed="8.00" length="14.19" shape="1447.20,941.60 1443.35,941.05 1440.60,939.40 1438.95,936.65 1438.40,932.80"/>
    </edge>
    <edge id=":344500_7" function="internal">
        <lane id=":344500_7_0" index="0" speed="3.65" length="4.67" shape="1447.20,941.60 1446.00,940.80 1445.60,940.00 1446.00,939.20 1447.20,938.40"/>
    </edge>
    <edge id=":344500_8" function="internal">
        <lane id=":344500_8_0" index="0" speed="6.51" length="9.03" shape="1441.60,932.80 1441.95,935.25 1443.00,937.00 1444.75,938.05 1447.20,938.40"/>
    </edge>
    <edge id=":344500_9" function="internal">
        <lane id=":344500_9_0" index="0" speed="13.89" length="14.40" shape="1441.60,932.80 1441.60,947.20"/>
    </edge>
    <edge id=":344500_10" function="internal">
        <lane id=":344500_10_0" index="0" speed="8.00" length="4.07" shape="1441.60,932.80 1441.05,936.65 1440.96,936.80"/>
    </edge>
    <edge id=":344500_11" function="internal">
        <lane id=":344500_11_0" index="0" speed="3.65" length="1.44" shape="1441.60,932.80 1440.80,934.00"/>
    </edge>
    <edge id=":344500_18" function="internal">
        <lane id=":344500_18_0" index="0" speed="8.00" length="10.13" shape="1440.96,936.80 1439.40,939.40 1436.65,941.05 1432.80,941.60"/>
    </edge>
    <edge id=":344500_19" function="internal">
        <lane id=":344500_19_0" index="0" speed="3.65" length="3.23" shape="1440.80,934.00 1440.00,934.40 1439.20,934.00 1438.40,932.80"/>
    </edge>
    <edge id=":344500_12" function="internal">
        <lane id=":344500_12_0" index="0" speed="6.51" length="9.03" shape="1432.80,938.40 1435.25,938.05 1437.00,937.00 1438.05,935.25 1438.40,932.80"/>
    </edge>
    <edge id=":344500_13" function="internal">
        <lane id=":344500_13_0" index="0" speed="13.89" length="14.40" shape="1432.80,938.40 1447.20,938.40"/>
    </edge>
    <edge id=":344500_14" function="internal">
        <lane id=":344500_14_0" index="0" speed="8.00" length="14.19" shape="1432.80,938.40 1436.65,938.95 1439.40,940.60 1441.05,943.35 1441.60,947.20"/>
    </edge>
    <edge id=":344500_15" function="internal">
        <lane id=":344500_15_0" index="0" speed="3.65" length="4.67" shape="1432.80,938.40 1434.00,939.20 1434.40,940.00 1434.00,940.80 1432.80,941.60"/>
    </edge>
    <edge id=":344508_0" function="internal">
        <lane id=":344508_0_0" index="0" speed="9.06" length="16.48" shape="1467.62,1027.71 1463.89,1025.72 1460.19,1025.34 1456.51,1026.57 1452.84,1029.42"/>
    </edge>
    <edge id=":344508_1" function="internal">
        <lane id=":344508_1_0" index="0" speed="13.89" length="20.48" shape="1467.62,1027.71 1463.61,1025.49 1458.32,1023.53 1452.84,1022.13 1448.27,1021.60"/>
    </edge>
    <edge id=":344508_2" function="internal">
        <lane id=":344508_2_0" index="0" speed="7.38" length="18.13" shape="1467.62,1027.71 1463.54,1023.80 1462.58,1020.52 1464.74,1017.87 1470.01,1015.85"/>
    </edge>
    <edge id=":344508_3" function="internal">
        <lane id=":344508_3_0" index="0" speed="3.65" length="4.67" shape="1467.62,1027.71 1467.14,1026.35 1467.30,1025.47 1468.10,1025.07 1469.54,1025.15"/>
    </edge>
    <edge id=":344508_4" function="internal">
        <lane id=":344508_4_0" index="0" speed="5.53" length="9.48" shape="1470.79,1018.95 1468.03,1020.01 1466.91,1021.39 1467.41,1023.11 1469.54,1025.15"/>
    </edge>
    <edge id=":344508_5" function="internal">
        <lane id=":344508_5_0" index="0" speed="13.89" length="20.91" shape="1470.79,1018.95 1466.44,1020.60 1461.32,1023.32 1456.45,1026.47 1452.84,1029.42"/>
    </edge>
    <edge id=":344508_6" function="internal">
        <lane id=":344508_6_0" index="0" speed="13.89" length="22.70" shape="1470.79,1018.95 1465.93,1019.88 1459.59,1020.73 1453.22,1021.36 1448.27,1021.60"/>
    </edge>
    <edge id=":344508_7" function="internal">
        <lane id=":344508_7_0" index="0" speed="3.65" length="1.44" shape="1470.79,1018.95 1469.43,1018.47"/>
    </edge>
    <edge id=":344508_16" function="internal">
        <lane id=":344508_16_0" index="0" speed="3.65" length="3.23" shape="1469.43,1018.47 1468.85,1017.79 1469.04,1016.91 1470.01,1015.85"/>
    </edge>
    <edge id=":344508_8" function="internal">
        <lane id=":344508_8_0" index="0" speed="13.89" length="21.92" shape="1448.27,1018.40 1453.10,1018.17 1459.20,1017.58 1465.27,1016.76 1470.01,1015.85"/>
    </edge>
    <edge id=":344508_9" function="internal">
        <lane id=":344508_9_0" index="0" speed="13.89" length="4.00" shape="1448.27,1018.40 1452.24,1018.92"/>
    </edge>
    <edge id=":344508_10" function="internal">
        <lane id=":344508_10_0" index="0" speed="7.42" length="4.41" shape="1448.27,1018.40 1452.66,1018.89"/>
    </edge>
    <edge id=":344508_11" function="internal">
        <lane id=":344508_11_0" index="0" speed="3.65" length="1.44" shape="1448.27,1018.40 1449.47,1019.20"/>
    </edge>
    <edge id=":344508_17" function="internal">
        <lane id=":344508_17_0" index="0" speed="13.89" length="18.49" shape="1452.24,1018.92 1453.14,1019.03 1459.28,1020.65 1465.23,1022.83 1469.54,1025.15"/>
    </edge>
    <edge id=":344508_18" function="internal">
        <lane id=":344508_18_0" index="0" speed="7.42" length="14.89" shape="1452.66,1018.89 1454.41,1019.09 1457.21,1021.16 1456.69,1024.60 1452.84,1029.42"/>
    </edge>
    <edge id=":344508_19" function="internal">
        <lane id=":344508_19_0" index="0" speed="3.65" length="3.23" shape="1449.47,1019.20 1449.87,1020.00 1449.47,1020.80 1448.27,1021.60"/>
    </edge>
    <edge id=":344508_12" function="internal">
        <lane id=":344508_12_0" index="0" speed="5.47" length="9.74" shape="1450.58,1027.16 1452.52,1024.73 1452.78,1022.99 1451.37,1021.95 1448.27,1021.60"/>
    </edge>
    <edge id=":344508_13" function="internal">
        <lane id=":344508_13_0" index="0" speed="13.89" length="22.61" shape="1450.58,1027.16 1454.42,1024.07 1459.80,1020.63 1465.43,1017.63 1470.01,1015.85"/>
    </edge>
    <edge id=":344508_14" function="internal">
        <lane id=":344508_14_0" index="0" speed="10.19" length="21.12" shape="1450.58,1027.16 1455.24,1023.56 1459.95,1022.02 1464.72,1022.55 1469.54,1025.15"/>
    </edge>
    <edge id=":344508_15" function="internal">
        <lane id=":344508_15_0" index="0" speed="3.65" length="4.67" shape="1450.58,1027.16 1451.99,1026.88 1452.84,1027.16 1453.12,1028.01 1452.84,1029.42"/>
    </edge>
    <edge id=":344548_0" function="internal">
        <lane id=":344548_0_0" index="0" speed="6.51" length="9.03" shape="1438.40,1047.20 1438.05,1044.75 1437.00,1043.00 1435.25,1041.95 1432.80,1041.60"/>
    </edge>
    <edge id=":344548_1" function="internal">
        <lane id=":344548_1_0" index="0" speed="13.89" length="18.93" shape="1438.40,1047.20 1438.40,1028.27"/>
    </edge>
    <edge id=":344548_2" function="internal">
        <lane id=":344548_2_0" index="0" speed="13.89" length="4.39" shape="1438.40,1047.20 1439.15,1043.56 1439.42,1042.95"/>
    </edge>
    <edge id=":344548_3" function="internal">
        <lane id=":344548_3_0" index="0" speed="3.65" length="1.44" shape="1438.40,1047.20 1439.20,1046.00"/>
    </edge>
    <edge id=":344548_16" function="internal">
        <lane id=":344548_16_0" index="0" speed="13.89" length="14.68" shape="1439.42,1042.95 1441.14,1039.06 1443.94,1034.47 1447.16,1030.58"/>
    </edge>
    <edge id=":344548_17" function="internal">
        <lane id=":344548_17_0" index="0" speed="3.65" length="3.23" shape="1439.20,1046.00 1440.00,1045.60 1440.80,1046.00 1441.60,1047.20"/>
    </edge>
    <edge id=":344548_4" function="internal">
        <lane id=":344548_4_0" index="0" speed="13.42" length="16.74" shape="1449.42,1032.84 1446.00,1036.67 1443.56,1040.34 1442.09,1043.85 1441.60,1047.20"/>
    </edge>
    <edge id=":344548_5" function="internal">
        <lane id=":344548_5_0" index="0" speed="13.89" length="19.24" shape="1449.42,1032.84 1445.10,1036.67 1440.89,1039.41 1436.79,1041.05 1432.80,1041.60"/>
    </edge>
    <edge id=":344548_6" function="internal">
        <lane id=":344548_6_0" index="0" speed="7.42" length="19.31" shape="1449.42,1032.84 1444.60,1036.69 1441.16,1037.21 1439.09,1034.41 1438.40,1028.27"/>
    </edge>
    <edge id=":344548_7" function="internal">
        <lane id=":344548_7_0" index="0" speed="3.65" length="4.67" shape="1449.42,1032.84 1448.01,1033.12 1447.16,1032.84 1446.88,1031.99 1447.16,1030.58"/>
    </edge>
    <edge id=":344548_8" function="internal">
        <lane id=":344548_8_0" index="0" speed="5.47" length="9.74" shape="1441.60,1028.27 1441.95,1031.37 1442.99,1032.78 1444.73,1032.52 1447.16,1030.58"/>
    </edge>
    <edge id=":344548_9" function="internal">
        <lane id=":344548_9_0" index="0" speed="13.89" length="18.93" shape="1441.60,1028.27 1441.60,1047.20"/>
    </edge>
    <edge id=":344548_10" function="internal">
        <lane id=":344548_10_0" index="0" speed="8.71" length="6.18" shape="1441.60,1028.27 1440.84,1032.60 1440.10,1034.22"/>
    </edge>
    <edge id=":344548_11" function="internal">
        <lane id=":344548_11_0" index="0" speed="3.65" length="1.44" shape="1441.60,1028.27 1440.80,1029.47"/>
    </edge>
    <edge id=":344548_18" function="internal">
        <lane id=":344548_18_0" index="0" speed="8.71" length="10.84" shape="1440.10,1034.22 1438.85,1036.93 1436.03,1040.27 1432.80,1041.60"/>
    </edge>
    <edge id=":344548_19" function="internal">
        <lane id=":344548_19_0" index="0" speed="3.65" length="3.23" shape="1440.80,1029.47 1440.00,1029.87 1439.20,1029.47 1438.40,1028.27"/>
    </edge>
    <edge id=":344548_12" function="internal">
        <lane id=":344548_12_0" index="0" speed="7.65" length="12.89" shape="1432.80,1038.40 1435.25,1037.77 1437.00,1035.87 1438.05,1032.70 1438.40,1028.27"/>
    </edge>
    <edge id=":344548_13" function="internal">
        <lane id=":344548_13_0" index="0" speed="13.42" length="16.74" shape="1432.80,1038.40 1436.15,1037.91 1439.66,1036.44 1443.33,1034.00 1447.16,1030.58"/>
    </edge>
    <edge id=":344548_14" function="internal">
        <lane id=":344548_14_0" index="0" speed="8.00" length="14.19" shape="1432.80,1038.40 1436.65,1038.95 1439.40,1040.60 1441.05,1043.35 1441.60,1047.20"/>
    </edge>
    <edge id=":344548_15" function="internal">