<?xml version="1.0" encoding="UTF-8"?>

<!-- generated on 2024-01-10 13:52:47 by Eclipse SUMO netedit Version v1_19_0+0143-4ff360ee235
<configuration xmlns:xsi="http://www.w3.org/2001/XMLSchema-instance" xsi:noNamespaceSchemaLocation="http://sumo.dlr.de/xsd/neteditConfiguration.xsd">

    <input>
        <sumo-net-file value="/Users/yara/Documents/UTWENTE/Academic Research skills/SpyingOnCyclists/sumoFiles/small/leftBottom.net.xml"/>
    </input>

    <output>
        <output-file value="/Users/yara/Documents/UTWENTE/Academic Research skills/SpyingOnCyclists/sumoFiles/small/leftBottom.net.xml"/>
    </output>

    <processing>
        <geometry.min-radius.fix.railways value="false"/>
        <geometry.max-grade.fix value="false"/>
        <offset.disable-normalization value="true"/>
        <lefthand value="0"/>
    </processing>

    <junctions>
        <no-turnarounds value="true"/>
        <junctions.corner-detail value="5"/>
        <junctions.limit-turn-speed value="5.50"/>
        <rectangular-lane-cut value="0"/>
    </junctions>

    <pedestrian>
        <walkingareas value="0"/>
    </pedestrian>

</configuration>
-->

<net version="1.16" junctionCornerDetail="5" limitTurnSpeed="5.50" xmlns:xsi="http://www.w3.org/2001/XMLSchema-instance" xsi:noNamespaceSchemaLocation="http://sumo.dlr.de/xsd/net_file.xsd">

    <location netOffset="720.00,380.00" convBoundary="300.00,60.00,440.00,320.00" origBoundary="-720.00,-380.00,260.00,320.00" projParameter="!"/>

    <edge id=":1060_0" function="internal">
        <lane id=":1060_0_0" index="0" speed="13.89" length="14.40" shape="358.40,227.20 358.40,212.80"/>
    </edge>
    <edge id=":1060_1" function="internal">
        <lane id=":1060_1_0" index="0" speed="8.00" length="4.07" shape="358.40,227.20 358.95,223.35 359.04,223.20"/>
    </edge>
    <edge id=":1060_2" function="internal">
        <lane id=":1060_2_0" index="0" speed="3.65" length="1.44" shape="358.40,227.20 359.20,226.00"/>
    </edge>
    <edge id=":1060_9" function="internal">
        <lane id=":1060_9_0" index="0" speed="8.00" length="10.13" shape="359.04,223.20 360.60,220.60 363.35,218.95 367.20,218.40"/>
    </edge>
    <edge id=":1060_10" function="internal">
        <lane id=":1060_10_0" index="0" speed="3.65" length="3.23" shape="359.20,226.00 360.00,225.60 360.80,226.00 361.60,227.20"/>
    </edge>
    <edge id=":1060_3" function="internal">
        <lane id=":1060_3_0" index="0" speed="6.51" length="9.03" shape="367.20,221.60 364.75,221.95 363.00,223.00 361.95,224.75 361.60,227.20"/>
    </edge>
    <edge id=":1060_4" function="internal">
        <lane id=":1060_4_0" index="0" speed="8.00" length="14.19" shape="367.20,221.60 363.35,221.05 360.60,219.40 358.95,216.65 358.40,212.80"/>
    </edge>
    <edge id=":1060_5" function="internal">
        <lane id=":1060_5_0" index="0" speed="3.65" length="4.67" shape="367.20,221.60 366.00,220.80 365.60,220.00 366.00,219.20 367.20,218.40"/>
    </edge>
    <edge id=":1060_6" function="internal">
        <lane id=":1060_6_0" index="0" speed="6.51" length="9.03" shape="361.60,212.80 361.95,215.25 363.00,217.00 364.75,218.05 367.20,218.40"/>
    </edge>
    <edge id=":1060_7" function="internal">
        <lane id=":1060_7_0" index="0" speed="13.89" length="14.40" shape="361.60,212.80 361.60,227.20"/>
    </edge>
    <edge id=":1060_8" function="internal">
        <lane id=":1060_8_0" index="0" speed="3.65" length="1.44" shape="361.60,212.80 360.80,214.00"/>
    </edge>
    <edge id=":1060_11" function="internal">
        <lane id=":1060_11_0" index="0" speed="3.65" length="3.23" shape="360.80,214.00 360.00,214.40 359.20,214.00 358.40,212.80"/>
    </edge>
    <edge id=":1225_0" function="internal">
        <lane id=":1225_0_0" index="0" speed="6.51" length="9.03" shape="358.40,167.20 358.05,164.75 357.00,163.00 355.25,161.95 352.80,161.60"/>
    </edge>
    <edge id=":1225_1" function="internal">
        <lane id=":1225_1_0" index="0" speed="13.89" length="14.40" shape="358.40,167.20 358.40,152.80"/>
    </edge>
    <edge id=":1225_2" function="internal">
        <lane id=":1225_2_0" index="0" speed="3.65" length="1.44" shape="358.40,167.20 359.20,166.00"/>
    </edge>
    <edge id=":1225_9" function="internal">
        <lane id=":1225_9_0" index="0" speed="3.65" length="3.23" shape="359.20,166.00 360.00,165.60 360.80,166.00 361.60,167.20"/>
    </edge>
    <edge id=":1225_3" function="internal">
        <lane id=":1225_3_0" index="0" speed="13.89" length="14.40" shape="361.60,152.80 361.60,167.20"/>
    </edge>
    <edge id=":1225_4" function="internal">
        <lane id=":1225_4_0" index="0" speed="8.00" length="4.07" shape="361.60,152.80 361.05,156.65 360.96,156.80"/>
    </edge>
    <edge id=":1225_5" function="internal">
        <lane id=":1225_5_0" index="0" speed="3.65" length="1.44" shape="361.60,152.80 360.80,154.00"/>
    </edge>
    <edge id=":1225_10" function="internal">
        <lane id=":1225_10_0" index="0" speed="8.00" length="10.13" shape="360.96,156.80 359.40,159.40 356.65,161.05 352.80,161.60"/>
    </edge>
    <edge id=":1225_11" function="internal">
        <lane id=":1225_11_0" index="0" speed="3.65" length="3.23" shape="360.80,154.00 360.00,154.40 359.20,154.00 358.40,152.80"/>
    </edge>
    <edge id=":1225_6" function="internal">
        <lane id=":1225_6_0" index="0" speed="6.51" length="9.03" shape="352.80,158.40 355.25,158.05 357.00,157.00 358.05,155.25 358.40,152.80"/>
    </edge>
    <edge id=":1225_7" function="internal">
        <lane id=":1225_7_0" index="0" speed="8.00" length="14.19" shape="352.80,158.40 356.65,158.95 359.40,160.60 361.05,163.35 361.60,167.20"/>
    </edge>
    <edge id=":1225_8" function="internal">
        <lane id=":1225_8_0" index="0" speed="3.65" length="4.67" shape="352.80,158.40 354.00,159.20 354.40,160.00 354.00,160.80 352.80,161.60"/>
    </edge>
    <edge id=":1227_0" function="internal">
        <lane id=":1227_0_0" index="0" speed="3.65" length="4.67" shape="440.00,218.40 441.20,219.20 441.60,220.00 441.20,220.80 440.00,221.60"/>
    </edge>
    <edge id=":1807_0" function="internal">
        <lane id=":1807_0_0" index="0" speed="6.51" length="9.03" shape="318.40,167.20 318.05,164.75 317.00,163.00 315.25,161.95 312.80,161.60"/>
    </edge>
    <edge id=":1807_1" function="internal">
        <lane id=":1807_1_0" index="0" speed="13.89" length="14.40" shape="318.40,167.20 318.40,152.80"/>
    </edge>
    <edge id=":1807_2" function="internal">
        <lane id=":1807_2_0" index="0" speed="8.00" length="4.07" shape="318.40,167.20 318.95,163.35 319.04,163.20"/>
    </edge>
    <edge id=":1807_3" function="internal">
        <lane id=":1807_3_0" index="0" speed="3.65" length="1.44" shape="318.40,167.20 319.20,166.00"/>
    </edge>
    <edge id=":1807_16" function="internal">
        <lane id=":1807_16_0" index="0" speed="8.00" length="10.13" shape="319.04,163.20 320.60,160.60 323.35,158.95 327.20,158.40"/>
    </edge>
    <edge id=":1807_17" function="internal">
        <lane id=":1807_17_0" index="0" speed="3.65" length="3.23" shape="319.20,166.00 320.00,165.60 320.80,166.00 321.60,167.20"/>
    </edge>
    <edge id=":1807_4" function="internal">
        <lane id=":1807_4_0" index="0" speed="6.51" length="9.03" shape="327.20,161.60 324.75,161.95 323.00,163.00 321.95,164.75 321.60,167.20"/>
    </edge>
    <edge id=":1807_5" function="internal">
        <lane id=":1807_5_0" index="0" speed="13.89" length="14.40" shape="327.20,161.60 312.80,161.60"/>
    </edge>
    <edge id=":1807_6" function="internal">
        <lane id=":1807_6_0" index="0" speed="8.00" length="14.19" shape="327.20,161.60 323.35,161.05 320.60,159.40 318.95,156.65 318.40,152.80"/>
    </edge>
    <edge id=":1807_7" function="internal">
        <lane id=":1807_7_0" index="0" speed="3.65" length="4.67" shape="327.20,161.60 326.00,160.80 325.60,160.00 326.00,159.20 327.20,158.40"/>
    </edge>
    <edge id=":1807_8" function="internal">
        <lane id=":1807_8_0" index="0" speed="6.51" length="9.03" shape="321.60,152.80 321.95,155.25 323.00,157.00 324.75,158.05 327.20,158.40"/>
    </edge>
    <edge id=":1807_9" function="internal">
        <lane id=":1807_9_0" index="0" speed="13.89" length="14.40" shape="321.60,152.80 321.60,167.20"/>
    </edge>
    <edge id=":1807_10" function="internal">
        <lane id=":1807_10_0" index="0" speed="8.00" length="4.07" shape="321.60,152.80 321.05,156.65 320.96,156.80"/>
    </edge>
    <edge id=":1807_11" function="internal">
        <lane id=":1807_11_0" index="0" speed="3.65" length="1.44" shape="321.60,152.80 320.80,154.00"/>
    </edge>
    <edge id=":1807_18" function="internal">
        <lane id=":1807_18_0" index="0" speed="8.00" length="10.13" shape="320.96,156.80 319.40,159.40 316.65,161.05 312.80,161.60"/>
    </edge>
    <edge id=":1807_19" function="internal">
        <lane id=":1807_19_0" index="0" speed="3.65" length="3.23" shape="320.80,154.00 320.00,154.40 319.20,154.00 318.40,152.80"/>
    </edge>
    <edge id=":1807_12" function="internal">
        <lane id=":1807_12_0" index="0" speed="6.51" length="9.03" shape="312.80,158.40 315.25,158.05 317.00,157.00 318.05,155.25 318.40,152.80"/>
    </edge>
    <edge id=":1807_13" function="internal">
        <lane id=":1807_13_0" index="0" speed="13.89" length="14.40" shape="312.80,158.40 327.20,158.40"/>
    </edge>
    <edge id=":1807_14" function="internal">
        <lane id=":1807_14_0" index="0" speed="8.00" length="14.19" shape="312.80,158.40 316.65,158.95 319.40,160.60 321.05,163.35 321.60,167.20"/>
    </edge>
    <edge id=":1807_15" function="internal">
        <lane id=":1807_15_0" index="0" speed="3.65" length="4.67" shape="312.80,158.40 314.00,159.20 314.40,160.00 314.00,160.80 312.80,161.60"/>
    </edge>
    <edge id=":1856_0" function="internal">
        <lane id=":1856_0_0" index="0" speed="3.65" length="4.67" shape="300.00,161.60 298.80,160.80 298.40,160.00 298.80,159.20 300.00,158.40"/>
    </edge>
    <edge id=":1947_0" function="internal">
        <lane id=":1947_0_0" index="0" speed="6.08" length="7.74" shape="323.20,241.60 321.10,241.30 319.60,240.40 318.70,238.90 318.40,236.80"/>
    </edge>
    <edge id=":1947_1" function="internal">
        <lane id=":1947_1_0" index="0" speed="3.90" length="2.58" shape="321.60,236.80 321.70,237.50 322.00,238.00 322.50,238.30 323.20,238.40"/>
    </edge>
    <edge id=":2101_0" function="internal">
        <lane id=":2101_0_0" index="0" speed="6.25" length="5.33" shape="318.40,101.98 318.57,100.60 319.06,99.42 319.89,98.45 321.05,97.68"/>
    </edge>
    <edge id=":2101_1" function="internal">
        <lane id=":2101_1_0" index="0" speed="4.00" length="1.78" shape="322.48,100.55 322.10,100.80 321.82,101.13 321.66,101.52 321.60,101.98"/>
    </edge>
    <edge id=":2148_0" function="internal">
        <lane id=":2148_0_0" index="0" speed="5.74" length="9.18" shape="358.40,89.18 358.03,86.48 356.93,84.97 355.09,84.66 352.51,85.54"/>
    </edge>
    <edge id=":2148_1" function="internal">
        <lane id=":2148_1_0" index="0" speed="13.89" length="15.16" shape="358.40,89.18 358.40,74.02"/>
    </edge>
    <edge id=":2148_2" function="internal">
        <lane id=":2148_2_0" index="0" speed="3.65" length="1.44" shape="358.40,89.18 359.20,87.98"/>
    </edge>
    <edge id=":2148_9" function="internal">
        <lane id=":2148_9_0" index="0" speed="3.65" length="3.23" shape="359.20,87.98 360.00,87.58 360.80,87.98 361.60,89.18"/>
    </edge>
    <edge id=":2148_3" function="internal">
        <lane id=":2148_3_0" index="0" speed="13.89" length="15.16" shape="361.60,74.02 361.60,89.18"/>
    </edge>
    <edge id=":2148_4" function="internal">
        <lane id=":2148_4_0" index="0" speed="10.24" length="3.57" shape="361.60,74.02 361.03,77.35 360.94,77.52"/>
    </edge>
    <edge id=":2148_5" function="internal">
        <lane id=":2148_5_0" index="0" speed="3.65" length="1.44" shape="361.60,74.02 360.80,75.22"/>
    </edge>
    <edge id=":2148_10" function="internal">
        <lane id=":2148_10_0" index="0" speed="10.24" length="11.88" shape="360.94,77.52 359.33,80.38 356.49,83.11 352.51,85.54"/>
    </edge>
    <edge id=":2148_11" function="internal">
        <lane id=":2148_11_0" index="0" speed="3.65" length="3.23" shape="360.80,75.22 360.00,75.62 359.20,75.22 358.40,74.02"/>
    </edge>
    <edge id=":2148_6" function="internal">
        <lane id=":2148_6_0" index="0" speed="9.05" length="11.91" shape="351.08,82.67 354.28,80.76 356.57,78.68 357.94,76.43 358.40,74.02"/>
    </edge>
    <edge id=":2148_7" function="internal">
        <lane id=":2148_7_0" index="0" speed="7.44" length="16.40" shape="351.08,82.67 355.68,81.11 358.97,81.67 360.94,84.36 361.60,89.18"/>
    </edge>
    <edge id=":2148_8" function="internal">
        <lane id=":2148_8_0" index="0" speed="3.65" length="4.67" shape="351.08,82.67 352.51,82.85 353.22,83.39 353.22,84.28 352.51,85.54"/>
    </edge>
    <edge id=":2205_0" function="internal">
        <lane id=":2205_0_0" index="0" speed="3.65" length="4.67" shape="358.40,60.00 359.20,58.80 360.00,58.40 360.80,58.80 361.60,60.00"/>
    </edge>
    <edge id=":494_0" function="internal">
        <lane id=":494_0_0" index="0" speed="5.47" length="9.74" shape="398.40,251.73 398.05,248.63 397.01,247.22 395.27,247.48 392.84,249.42"/>
    </edge>
    <edge id=":494_1" function="internal">
        <lane id=":494_1_0" index="0" speed="8.54" length="16.33" shape="398.40,251.73 397.77,247.30 395.87,244.13 392.70,242.23 388.27,241.60"/>
    </edge>
    <edge id=":494_2" function="internal">
        <lane id=":494_2_0" index="0" speed="3.65" length="1.30" shape="398.40,251.73 399.12,250.64"/>
    </edge>
    <edge id=":494_9" function="internal">
        <lane id=":494_9_0" index="0" speed="3.65" length="3.37" shape="399.12,250.64 399.20,250.53 400.00,250.13 400.80,250.53 401.60,251.73"/>
    </edge>
    <edge id=":494_3" function="internal">
        <lane id=":494_3_0" index="0" speed="9.73" length="21.49" shape="388.27,238.40 394.10,239.23 398.27,241.73 400.77,245.90 401.60,251.73"/>
    </edge>
    <edge id=":494_4" function="internal">
        <lane id=":494_4_0" index="0" speed="7.42" length="9.49" shape="388.27,238.40 394.41,239.09 397.08,241.06"/>
    </edge>
    <edge id=":494_5" function="internal">
        <lane id=":494_5_0" index="0" speed="3.65" length="1.44" shape="388.27,238.40 389.47,239.20"/>
    </edge>
    <edge id=":494_10" function="internal">
        <lane id=":494_10_0" index="0" speed="7.42" length="9.82" shape="397.08,241.06 397.21,241.16 396.69,244.60 392.84,249.42"/>
    </edge>
    <edge id=":494_11" function="internal">
        <lane id=":494_11_0" index="0" speed="3.65" length="3.23" shape="389.47,239.20 389.87,240.00 389.47,240.80 388.27,241.60"/>
    </edge>
    <edge id=":494_6" function="internal">
        <lane id=":494_6_0" index="0" speed="5.47" length="9.74" shape="390.58,247.16 392.52,244.73 392.78,242.99 391.37,241.95 388.27,241.60"/>
    </edge>
    <edge id=":494_7" function="internal">
        <lane id=":494_7_0" index="0" speed="7.42" length="19.31" shape="390.58,247.16 395.40,243.31 398.84,242.79 400.91,245.59 401.60,251.73"/>
    </edge>
    <edge id=":494_8" function="internal">
        <lane id=":494_8_0" index="0" speed="3.65" length="4.67" shape="390.58,247.16 391.99,246.88 392.84,247.16 393.12,248.01 392.84,249.42"/>
    </edge>
    <edge id=":537_0" function="internal">
        <lane id=":537_0_0" index="0" speed="13.89" length="14.40" shape="367.20,241.60 352.80,241.60"/>
    </edge>
    <edge id=":537_1" function="internal">
        <lane id=":537_1_0" index="0" speed="8.00" length="4.07" shape="367.20,241.60 363.35,241.05 363.20,240.96"/>
    </edge>
    <edge id=":537_2" function="internal">
        <lane id=":537_2_0" index="0" speed="3.65" length="1.44" shape="367.20,241.60 366.00,240.80"/>
    </edge>
    <edge id=":537_9" function="internal">
        <lane id=":537_9_0" index="0" speed="8.00" length="10.13" shape="363.20,240.96 360.60,239.40 358.95,236.65 358.40,232.80"/>
    </edge>
    <edge id=":537_10" function="internal">
        <lane id=":537_10_0" index="0" speed="3.65" length="3.23" shape="366.00,240.80 365.60,240.00 366.00,239.20 367.20,238.40"/>
    </edge>
    <edge id=":537_3" function="internal">
        <lane id=":537_3_0" index="0" speed="6.51" length="9.03" shape="361.60,232.80 361.95,235.25 363.00,237.00 364.75,238.05 367.20,238.40"/>
    </edge>
    <edge id=":537_4" function="internal">
        <lane id=":537_4_0" index="0" speed="8.00" length="14.19" shape="361.60,232.80 361.05,236.65 359.40,239.40 356.65,241.05 352.80,241.60"/>
    </edge>
    <edge id=":537_5" function="internal">
        <lane id=":537_5_0" index="0" speed="3.65" length="4.67" shape="361.60,232.80 360.80,234.00 360.00,234.40 359.20,234.00 358.40,232.80"/>
    </edge>
    <edge id=":537_6" function="internal">
        <lane id=":537_6_0" index="0" speed="6.51" length="9.03" shape="352.80,238.40 355.25,238.05 357.00,237.00 358.05,235.25 358.40,232.80"/>
    </edge>
    <edge id=":537_7" function="internal">
        <lane id=":537_7_0" index="0" speed="13.89" length="14.40" shape="352.80,238.40 367.20,238.40"/>
    </edge>
    <edge id=":537_8" function="internal">
        <lane id=":537_8_0" index="0" speed="3.65" length="1.44" shape="352.80,238.40 354.00,239.20"/>
    </edge>
    <edge id=":537_11" function="internal">
        <lane id=":537_11_0" index="0" speed="3.65" length="3.23" shape="354.00,239.20 354.40,240.00 354.00,240.80 352.80,241.60"/>
    </edge>

    <edge id="-1061" from="1060" to="537" priority="-1">
        <lane id="-1061_0" index="0" speed="13.89" length="5.60" shape="361.60,227.20 361.60,232.80"/>
    </edge>
    <edge id="-1226" from="1225" to="1060" priority="-1">
        <lane id="-1226_0" index="0" speed="13.89" length="45.60" shape="361.60,167.20 361.60,212.80"/>
    </edge>
    <edge id="-1228" from="1227" to="1060" priority="-1">
        <lane id="-1228_0" index="0" speed="13.89" length="72.80" shape="440.00,221.60 367.20,221.60"/>
    </edge>
    <edge id="-1808" from="1807" to="1225" priority="-1">
        <lane id="-1808_0" index="0" speed="13.89" length="25.60" shape="327.20,158.40 352.80,158.40"/>
    </edge>
    <edge id="-1857" from="1856" to="1807" priority="-1">
        <lane id="-1857_0" index="0" speed="13.89" length="12.80" shape="300.00,158.40 312.80,158.40"/>
    </edge>
    <edge id="-1948" from="1947" to="1807" priority="-1">
        <lane id="-1948_0" index="0" speed="13.89" length="69.60" shape="318.40,236.80 318.40,167.20"/>
    </edge>
    <edge id="-1952" from="1947" to="537" priority="-1">
        <lane id="-1952_0" index="0" speed="13.89" length="29.60" shape="323.20,238.40 352.80,238.40"/>
    </edge>
    <edge id="-2102" from="2101" to="1807" priority="-1">
        <lane id="-2102_0" index="0" speed="13.89" length="50.82" shape="321.60,101.98 321.60,152.80"/>
    </edge>
    <edge id="-2149" from="2148" to="1225" priority="-1">
        <lane id="-2149_0" index="0" speed="13.89" length="63.62" shape="361.60,89.18 361.60,152.80"/>
    </edge>
    <edge id="-2203" from="2148" to="2101" priority="-1">
        <lane id="-2203_0" index="0" speed="13.89" length="33.57" shape="352.51,85.54 322.48,100.55"/>
    </edge>
    <edge id="-2206" from="2205" to="2148" priority="-1">
        <lane id="-2206_0" index="0" speed="13.89" length="14.02" shape="361.60,60.00 361.60,74.02"/>
    </edge>
    <edge id="-495" from="494" to="437" priority="-1">
        <lane id="-495_0" index="0" speed="13.89" length="68.27" shape="401.60,251.73 401.60,320.00"/>
    </edge>
    <edge id="-536" from="534" to="494" priority="-1">
        <lane id="-536_0" index="0" speed="13.89" length="73.13" shape="338.87,298.87 390.58,247.16"/>
    </edge>
    <edge id="-538" from="537" to="494" priority="-1">
        <lane id="-538_0" index="0" speed="13.89" length="21.07" shape="367.20,238.40 388.27,238.40"/>
    </edge>
    <edge id="1061" from="537" to="1060" priority="-1">
        <lane id="1061_0" index="0" speed="13.89" length="5.60" shape="358.40,232.80 358.40,227.20"/>
    </edge>
    <edge id="1226" from="1060" to="1225" priority="-1">
        <lane id="1226_0" index="0" speed="13.89" length="45.60" shape="358.40,212.80 358.40,167.20"/>
    </edge>
    <edge id="1228" from="1060" to="1227" priority="-1">
        <lane id="1228_0" index="0" speed="13.89" length="72.80" shape="367.20,218.40 440.00,218.40"/>
    </edge>
    <edge id="1808" from="1225" to="1807" priority="-1">
        <lane id="1808_0" index="0" speed="13.89" length="25.60" shape="352.80,161.60 327.20,161.60"/>
    </edge>
    <edge id="1857" from="1807" to="1856" priority="-1">
        <lane id="1857_0" index="0" speed="13.89" length="12.80" shape="312.80,161.60 300.00,161.60"/>
    </edge>
    <edge id="1948" from="1807" to="1947" priority="-1">
        <lane id="1948_0" index="0" speed="13.89" length="69.60" shape="321.60,167.20 321.60,236.80"/>
    </edge>
    <edge id="1952" from="537" to="1947" priority="-1">
        <lane id="1952_0" index="0" speed="13.89" length="29.60" shape="352.80,241.60 323.20,241.60"/>
    </edge>
    <edge id="2102" from="1807" to="2101" priority="-1">
        <lane id="2102_0" index="0" speed="13.89" length="50.82" shape="318.40,152.80 318.40,101.98"/>
    </edge>
    <edge id="2149" from="1225" to="2148" priority="-1">
        <lane id="2149_0" index="0" speed="13.89" length="63.62" shape="358.40,152.80 358.40,89.18"/>
    </edge>
    <edge id="2203" from="2101" to="2148" priority="-1">
        <lane id="2203_0" index="0" speed="13.89" length="33.57" shape="321.05,97.68 351.08,82.67"/>
    </edge>
    <edge id="2206" from="2148" to="2205" priority="-1">
        <lane id="2206_0" index="0" speed="13.89" length="14.02" shape="358.40,74.02 358.40,60.00"/>
    </edge>
    <edge id="495" from="437" to="494" priority="-1">
        <lane id="495_0" index="0" speed="13.89" length="68.27" shape="398.40,320.00 398.40,251.73"/>
    </edge>
    <edge id="536" from="494" to="534" priority="-1">
        <lane id="536_0" index="0" speed="13.89" length="73.13" shape="392.84,249.42 341.13,301.13"/>
    </edge>
    <edge id="538" from="494" to="537" priority="-1">
        <lane id="538_0" index="0" speed="13.89" length="21.07" shape="388.27,241.60 367.20,241.60"/>
    </edge>

    <junction id="1060" type="priority" x="360.00" y="220.00" incLanes="1061_0 -1228_0 -1226_0" intLanes=":1060_0_0 :1060_9_0 :1060_10_0 :1060_3_0 :1060_4_0 :1060_5_0 :1060_6_0 :1060_7_0 :1060_11_0" shape="356.80,227.20 363.20,227.20 363.64,224.98 364.20,224.20 364.98,223.64 365.98,223.31 367.20,223.20 367.20,216.80 364.98,216.36 364.20,215.80 363.64,215.02 363.31,214.02 363.20,212.80 356.80,212.80">
        <request index="0" response="000000000" foes="100010000" cont="0"/>
        <request index="1" response="011000000" foes="011110000" cont="1"/>
        <request index="2" response="010001000" foes="010001000" cont="1"/>
        <request index="3" response="010000000" foes="010000100" cont="0"/>
        <request index="4" response="010000011" foes="110000011" cont="0"/>
        <request index="5" response="001000010" foes="001000010" cont="0"/>
        <request index="6" response="000000000" foes="000100010" cont="0"/>
        <request index="7" response="000000000" foes="000011110" cont="0"/>
        <request index="8" response="000010001" foes="000010001" cont="1"/>
    </junction>
    <junction id="1225" type="priority" x="360.00" y="160.00" incLanes="1226_0 -2149_0 -1808_0" intLanes=":1225_0_0 :1225_1_0 :1225_9_0 :1225_3_0 :1225_10_0 :1225_11_0 :1225_6_0 :1225_7_0 :1225_8_0" shape="356.80,167.20 363.20,167.20 363.20,152.80 356.80,152.80 356.36,155.02 355.80,155.80 355.02,156.36 354.02,156.69 352.80,156.80 352.80,163.20 355.02,163.64 355.80,164.20 356.36,164.98 356.69,165.98">
        <request index="0" response="000000000" foes="100010000" cont="0"/>
        <request index="1" response="000000000" foes="011110000" cont="0"/>
        <request index="2" response="010001000" foes="010001000" cont="1"/>
        <request index="3" response="000000000" foes="010000100" cont="0"/>
        <request index="4" response="000000011" foes="110000011" cont="1"/>
        <request index="5" response="001000010" foes="001000010" cont="1"/>
        <request index="6" response="000000010" foes="000100010" cont="0"/>
        <request index="7" response="000011010" foes="000011110" cont="0"/>
        <request index="8" response="000010001" foes="000010001" cont="0"/>
    </junction>
    <junction id="1227" type="priority" x="440.00" y="220.00" incLanes="1228_0" intLanes=":1227_0_0" shape="440.00,220.00 440.00,216.80 440.00,220.00">
        <request index="0" response="0" foes="0" cont="0"/>
    </junction>
    <junction id="1807" type="priority" x="320.00" y="160.00" incLanes="-1948_0 1808_0 -2102_0 -1857_0" intLanes=":1807_0_0 :1807_1_0 :1807_16_0 :1807_17_0 :1807_4_0 :1807_5_0 :1807_6_0 :1807_7_0 :1807_8_0 :1807_9_0 :1807_18_0 :1807_19_0 :1807_12_0 :1807_13_0 :1807_14_0 :1807_15_0" shape="316.80,167.20 323.20,167.20 323.64,164.98 324.20,164.20 324.98,163.64 325.98,163.31 327.20,163.20 327.20,156.80 324.98,156.36 324.20,155.80 323.64,155.02 323.31,154.02 323.20,152.80 316.80,152.80 316.36,155.02 315.80,155.80 315.02,156.36 314.02,156.69 312.80,156.80 312.80,163.20 315.02,163.64 315.80,164.20 316.36,164.98 316.69,165.98">
        <request index="0"  response="0000000000000000" foes="1000010000100000" cont="0"/>
        <request index="1"  response="0000000000000000" foes="0111110001100000" cont="0"/>
        <request index="2"  response="0000011100000000" foes="0110011111100000" cont="1"/>
        <request index="3"  response="0100001000010000" foes="0100001000010000" cont="1"/>
        <request index="4"  response="0000001000000000" foes="0100001000001000" cont="0"/>
        <request index="5"  response="0000011000000111" foes="1100011000000111" cont="0"/>
        <request index="6"  response="0011011000000110" foes="0111111000000110" cont="0"/>
        <request index="7"  response="0010000100000100" foes="0010000100000100" cont="0"/>
        <request index="8"  response="0000000000000000" foes="0010000010000100" cont="0"/>
        <request index="9"  response="0000000000000000" foes="0110000001111100" cont="0"/>
        <request index="10" response="0000000000000011" foes="1110000001100111" cont="1"/>
        <request index="11" response="0001000001000010" foes="0001000001000010" cont="1"/>
        <request index="12" response="0000000000000010" foes="0000100001000010" cont="0"/>
        <request index="13" response="0000011100000110" foes="0000011111000110" cont="0"/>
        <request index="14" response="0000011001110110" foes="0000011001111110" cont="0"/>
        <request index="15" response="0000010000100001" foes="0000010000100001" cont="0"/>
    </junction>
    <junction id="1856" type="priority" x="300.00" y="160.00" incLanes="1857_0" intLanes=":1856_0_0" shape="300.00,160.00 300.00,163.20 300.00,160.00">
        <request index="0" response="0" foes="0" cont="0"/>
    </junction>
    <junction id="1947" type="priority" x="320.00" y="240.00" incLanes="1952_0 1948_0" intLanes=":1947_0_0 :1947_1_0" shape="323.20,243.20 323.20,236.80 316.80,236.80 317.51,240.36 318.40,241.60 319.64,242.49 321.24,243.02">
        <request index="0" response="00" foes="00" cont="0"/>
        <request index="1" response="00" foes="00" cont="0"/>
    </junction>
    <junction id="2101" type="priority" x="320.00" y="100.00" incLanes="2102_0 -2203_0" intLanes=":2101_0_0 :2101_1_0" shape="316.80,101.98 323.20,101.98 320.34,96.25 318.37,97.68 317.68,98.57 317.19,99.58 316.90,100.72">
        <request index="0" response="00" foes="00" cont="0"/>
        <request index="1" response="00" foes="00" cont="0"/>
    </junction>
    <junction id="2148" type="priority" x="360.00" y="80.00" incLanes="2149_0 -2206_0 2203_0" intLanes=":2148_0_0 :2148_1_0 :2148_9_0 :2148_3_0 :2148_10_0 :2148_11_0 :2148_6_0 :2148_7_0 :2148_8_0" shape="356.80,89.18 363.20,89.18 363.20,74.02 356.80,74.02 356.08,76.60 355.19,77.83 353.94,79.01 352.33,80.15 350.36,81.24 353.22,86.97 355.21,86.42 355.91,86.62 356.40,87.15 356.70,88.01">
        <request index="0" response="000000000" foes="100010000" cont="0"/>
        <request index="1" response="000000000" foes="011110000" cont="0"/>
        <request index="2" response="010001000" foes="010001000" cont="1"/>
        <request index="3" response="000000000" foes="010000100" cont="0"/>
        <request index="4" response="000000011" foes="110000011" cont="1"/>
        <request index="5" response="001000010" foes="001000010" cont="1"/>
        <request index="6" response="000000010" foes="000100010" cont="0"/>
        <request index="7" response="000011010" foes="000011110" cont="0"/>
        <request index="8" response="000010001" foes="000010001" cont="0"/>
    </junction>
    <junction id="2205" type="priority" x="360.00" y="60.00" incLanes="2206_0" intLanes=":2205_0_0" shape="360.00,60.00 356.80,60.00 360.00,60.00">
        <request index="0" response="0" foes="0" cont="0"/>
    </junction>
    <junction id="437" type="dead_end" x="400.00" y="320.00" incLanes="-495_0" intLanes="" shape="400.00,320.00 403.20,320.00 400.00,320.00"/>
    <junction id="494" type="priority" x="400.00" y="240.00" incLanes="495_0 -538_0 -536_0" intLanes=":494_0_0 :494_1_0 :494_9_0 :494_3_0 :494_10_0 :494_11_0 :494_6_0 :494_7_0 :494_8_0" shape="396.80,251.73 403.20,251.73 402.79,247.16 401.54,243.43 399.47,240.53 396.57,238.46 392.84,237.21 388.27,236.80 388.27,243.20 390.18,243.51 390.57,243.91 390.57,244.46 390.20,245.16 389.45,246.03 393.97,250.55 395.54,249.43 396.09,249.43 396.49,249.82 396.72,250.58">
        <request index="0" response="000000000" foes="100010000" cont="0"/>
        <request index="1" response="000000000" foes="011110000" cont="0"/>