<?xml version="1.0" encoding="UTF-8"?>

<!-- generated on 2023-12-21 12:59:15 by Eclipse SUMO netedit Version v1_19_0+0143-4ff360ee235
-->

<routes xmlns:xsi="http://www.w3.org/2001/XMLSchema-instance" xsi:noNamespaceSchemaLocation="http://sumo.dlr.de/xsd/routes_file.xsd">
    <!-- VTypes -->
    <vType id="bicycle" maxSpeed="20.00" vClass="bicycle"/>
    <!-- Vehicles, persons and containers (sorted by depart) -->
    <vehicle id="0_fietser" type="bicycle" depart="0.00">
        <route edges="1284 1445 1492 -1791 -485 -438 -460 482 526 -1027 1033 1054 -1054"/>
    </vehicle>
    <vehicle id="1_fietser" type="bicycle" depart="1.00">
        <route edges="-1838 -1786"/>
    </vehicle>
    <vehicle id="2_fietser" type="bicycle" depart="2.00">
        <route edges="1502"/>
    </vehicle>
    <vehicle id="3_fietser" type="bicycle" depart="3.00">
        <route edges="389 -1460 -1101 1238 -1238"/>
    </vehicle>
    <vehicle id="4_fietser" type="bicycle" depart="4.00">
        <route edges="-400 400 435 460 438 495 538 1061 -1061"/>
    </vehicle>
    <vehicle id="5_fietser" type="bicycle" depart="5.00">
        <route edges="-1617 -1376 1370 -1620 -1453 -1288 -1224 -535 -487 -438 -412 -273 230 -72 -3 15 -202 1086"/>
    </vehicle>
    <vehicle id="6_fietser" type="bicycle" depart="6.00">
        <route edges="-1054 -1033 1027 -526 -482 460 438 487 535 1224 1288 1453 1620 -1370 1370 -1620"/>
    </vehicle>
    <vehicle id="7_fietser" type="bicycle" depart="7.00">
        <route edges="1295 -99 -89 -62 52 72 -230 273 412 438 495 538 1061 1228"/>
    </vehicle>
    <vehicle id="8_fietser" type="bicycle" depart="8.00">
        <route edges="-1617 -1376 1370 -1620 -1453 -1288 -1224 -535 -487 -438 -412 -273 230 -72 -52 62 89 99 -1295 1324"/>
    </vehicle>
    <vehicle id="9_fietser" type="bicycle" depart="9.00">
        <route edges="1952 -1948 1948 -1952 -538 -495 -438 -460 482 526 -1027 1026 -1021"/>
    </vehicle>
    <vehicle id="10_fietser" type="bicycle" depart="10.00">
        <route edges="1952 -1948 1948 -1952 -538 -495 -438 -412 -273 230 -72 -3 15 168"/>
    </vehicle>
    <vehicle id="11_fietser" type="bicycle" depart="11.00">
        <route edges="-2149 -1226 -1061 -538 -495 -438 -412 -273 230 -72 -52 62 89 99 -1350 1352 1391 -1391"/>
    </vehicle>
    <vehicle id="12_fietser" type="bicycle" depart="12.00">
        <route edges="532 -487 -438 -412 -273"/>
    </vehicle>
    <vehicle id="13_fietser" type="bicycle" depart="13.00">
        <route edges="-1245 1245 -1086 202 -15 3 27 34 134 -126"/>
    </vehicle>
    <vehicle id="14_fietser" type="bicycle" depart="14.00">
        <route edges="230 -72 -52 62 89 99 -1350 1350"/>
    </vehicle>
    <vehicle id="15_fietser" type="bicycle" depart="15.00">
        <route edges="1952 -1948 1948 -1952 -538 536 1224 1288 1453 1620 -1370 1380 1800"/>
    </vehicle>
    <vehicle id="16_fietser" type="bicycle" depart="16.00">
        <route edges="-99 -89 -62 62"/>
    </vehicle>
    <vehicle id="17_fietser" type="bicycle" depart="17.00">
        <route edges="-233 208 229 978 1033 1093 1215 1245"/>
    </vehicle>
    <vehicle id="18_fietser" type="bicycle" depart="18.00">
        <route edges="2203 -2149 -1226 -1061 -538 536 1224 1288 1453 1620 -1370 1376"/>
    </vehicle>
    <vehicle id="19_fietser" type="bicycle" depart="19.00">
        <route edges="246 -126 -1461 -1101 1238 1295"/>
    </vehicle>
    <vehicle id="20_fietser" type="bicycle" depart="20.00">
        <route edges="1445 1492 -1791 -485 -438 -460 482 526 -1027 1033 1093 1215 1245 -1086"/>
    </vehicle>
    <vehicle id="21_fietser" type="bicycle" depart="21.00">
        <route edges="-1622 -1453 -1288 -1224 -536 538 1061 1226 2149 -2149"/>
    </vehicle>
    <vehicle id="22_fietser" type="bicycle" depart="22.00">
        <route edges="-1226 -1061 -538 -495 485 1791 -1492 1492 -1791"/>
    </vehicle>
    <vehicle id="23_fietser" type="bicycle" depart="23.00">
        <route edges="-126 126 -246 245 -233 208 -208"/>
    </vehicle>
    <vehicle id="24_fietser" type="bicycle" depart="24.00">
        <route edges="126 -134 -34 -27 72 -230 273 412 -412"/>
    </vehicle>
    <vehicle id="25_fietser" type="bicycle" depart="25.00">
        <route edges="-23 23 241 400 435 460 438 487 535 1224 1288 1453 1648 -1648"/>
    </vehicle>
    <vehicle id="26_fietser" type="bicycle" depart="26.00">
        <route edges="-1800 -1380 1370 -1620 -1453 -1288 -1224 -535 -487 -438 -412 -273 230 -72 -52 62 514"/>
    </vehicle>
    <vehicle id="27_fietser" type="bicycle" depart="27.00">
        <route edges="1295 -1350 1352"/>
    </vehicle>
    <vehicle id="28_fietser" type="bicycle" depart="28.00">
        <route edges="-1420 -1391 -1352 1350 -99 -89 -62 52 72 -230 273 412 438 487 535 1224 1288 1453 1620 -1370 1380 1800"/>
    </vehicle>
    <vehicle id="29_fietser" type="bicycle" depart="29.00">
        <route edges="-1391 -1352 1350 -99 -89 -62 52 72 -230 273 412 -460"/>
    </vehicle>
    <vehicle id="30_fietser" type="bicycle" depart="30.00">
        <route edges="978 1027 -526 -482 460 438 487 535 1224 1284 1445"/>
    </vehicle>
    <vehicle id="31_fietser" type="bicycle" depart="31.00">
        <route edges="1033 -1033 1027 -526 -482 460 438 487 535 1224 1288 1453 1620"/>
    </vehicle>
    <vehicle id="32_fietser" type="bicycle" depart="32.00">
        <route edges="23 241 400 435 460 438 487 535 1224 1288 1453 1622 1937 1986"/>
    </vehicle>
    <vehicle id="33_fietser" type="bicycle" depart="33.00">
        <route edges="-1622 -1453 -1288 -1224 -535 -487 -438 -412 -273 230 -72 -3 15 168 187 -1072"/>
    </vehicle>
    <vehicle id="34_fietser" type="bicycle" depart="34.00">
        <route edges="-1986 1986 -1942 -1648 -1453 -1288 -1224 -536 538 1952 -1948 1948 -1952"/>
    </vehicle>
    <vehicle id="35_fietser" type="bicycle" depart="35.00">
        <route edges="-15 3 -52 52"/>
    </vehicle>
    <vehicle id="36_fietser" type="bicycle" depart="36.00">
        <route edges="273 -273 229 -241"/>
    </vehicle>
    <vehicle id="37_fietser" type="bicycle" depart="37.00">
        <route edges="1315 -1339 -1284 -1224 -536 -495"/>
    </vehicle>
    <vehicle id="38_fietser" type="bicycle" depart="38.00">
        <route edges="44 62 89 99 -99"/>
    </vehicle>
    <vehicle id="39_fietser" type="bicycle" depart="39.00">
        <route edges="-1791 -485 -438 -460 482 526 -1027 1033 1054 1072 -187"/>
    </vehicle>
    <vehicle id="40_fietser" type="bicycle" depart="40.00">
        <route edges="1049 -1054 -1033 1027 -526 -482 460 438 495 538 1952 -1948"/>
    </vehicle>
    <vehicle id="41_fietser" type="bicycle" depart="41.00">
        <route edges="1086 -1086 202 -15 11 23 241 400 435"/>
    </vehicle>
    <vehicle id="42_fietser" type="bicycle" depart="42.00">
        <route edges="-27 72 -230 229 978 1033 1093 1221 1790 1840 -1778"/>
    </vehicle>
    <vehicle id="43_fietser" type="bicycle" depart="43.00">
        <route edges="99 -99 -89 -62 52 72 -230 229 978 1033 1089"/>
    </vehicle>
    <vehicle id="44_fietser" type="bicycle" depart="44.00">
        <route edges="-1238 -985 -99 -89 -62 52 -3 15 -202 1086 -1086"/>
    </vehicle>
    <vehicle id="45_fietser" type="bicycle" depart="45.00">
        <route edges="-1284 -1224 -535 -487 -438 -412 -273 230 -72 -52 62 89 99 -1350 1352 1391 1418"/>
    </vehicle>
    <vehicle id="46_fietser" type="bicycle" depart="46.00">
        <route edges="189 202 -15 3 72 -230 273 412 438 487 535 -535"/>
    </vehicle>
    <vehicle id="47_fietser" type="bicycle" depart="47.00">
        <route edges="-1110 -1089 -1033 1027 -526 -482"/>
    </vehicle>
    <vehicle id="48_fietser" type="bicycle" depart="48.00">
        <route edges="99 -99 -89 -62 52 72 -230 229 978 1033 1093 1215"/>
    </vehicle>
    <vehicle id="49_fietser" type="bicycle" depart="49.00">
        <route edges="538 -538 -495 -438 -412 -273 230 -72 27"/>
    </vehicle>
</routes>
