<?xml version="1.0" encoding="UTF-8"?>

<!-- generated on 2024-01-19 13:19:39 by Eclipse SUMO netgenerate Version 1.19.0
<configuration xmlns:xsi="http://www.w3.org/2001/XMLSchema-instance" xsi:noNamespaceSchemaLocation="http://sumo.dlr.de/xsd/netgenerateConfiguration.xsd">

    <random_network>
        <rand value="true"/>
        <rand.iterations value="100"/>
        <rand.max-distance value="100"/>
        <rand.min-distance value="40"/>
        <rand.grid value="true"/>
    </random_network>

    <output>
        <human-readable-time value="true"/>
        <alphanumerical-ids value="true"/>
        <output-file value="small.net.xml"/>
    </output>

</configuration>
-->

<net version="1.16" junctionCornerDetail="5" limitTurnSpeed="5.50" xmlns:xsi="http://www.w3.org/2001/XMLSchema-instance" xsi:noNamespaceSchemaLocation="http://sumo.dlr.de/xsd/net_file.xsd">

    <location netOffset="360.00,400.00" convBoundary="0.00,0.00,760.00,800.00" origBoundary="-360.00,-400.00,400.00,400.00" projParameter="!"/>

    <edge id=":1_0" function="internal">
        <lane id=":1_0_0" index="0" speed="6.51" length="9.03" shape="358.40,407.20 358.05,404.75 357.00,403.00 355.25,401.95 352.80,401.60"/>
    </edge>
    <edge id=":1_1" function="internal">
        <lane id=":1_1_0" index="0" speed="13.89" length="14.40" shape="358.40,407.20 358.40,392.80"/>
    </edge>
    <edge id=":1_2" function="internal">
        <lane id=":1_2_0" index="0" speed="8.00" length="4.07" shape="358.40,407.20 358.95,403.35 359.04,403.20"/>
    </edge>
    <edge id=":1_3" function="internal">
        <lane id=":1_3_0" index="0" speed="3.65" length="1.44" shape="358.40,407.20 359.20,406.00"/>
    </edge>
    <edge id=":1_16" function="internal">
        <lane id=":1_16_0" index="0" speed="8.00" length="10.13" shape="359.04,403.20 360.60,400.60 363.35,398.95 367.20,398.40"/>
    </edge>
    <edge id=":1_17" function="internal">
        <lane id=":1_17_0" index="0" speed="3.65" length="3.23" shape="359.20,406.00 360.00,405.60 360.80,406.00 361.60,407.20"/>
    </edge>
    <edge id=":1_4" function="internal">
        <lane id=":1_4_0" index="0" speed="6.51" length="9.03" shape="367.20,401.60 364.75,401.95 363.00,403.00 361.95,404.75 361.60,407.20"/>
    </edge>
    <edge id=":1_5" function="internal">
        <lane id=":1_5_0" index="0" speed="13.89" length="14.40" shape="367.20,401.60 352.80,401.60"/>
    </edge>
    <edge id=":1_6" function="internal">
        <lane id=":1_6_0" index="0" speed="8.00" length="14.19" shape="367.20,401.60 363.35,401.05 360.60,399.40 358.95,396.65 358.40,392.80"/>
    </edge>
    <edge id=":1_7" function="internal">
        <lane id=":1_7_0" index="0" speed="3.65" length="4.67" shape="367.20,401.60 366.00,400.80 365.60,400.00 366.00,399.20 367.20,398.40"/>
    </edge>
    <edge id=":1_8" function="internal">
        <lane id=":1_8_0" index="0" speed="6.51" length="9.03" shape="361.60,392.80 361.95,395.25 363.00,397.00 364.75,398.05 367.20,398.40"/>
    </edge>
    <edge id=":1_9" function="internal">
        <lane id=":1_9_0" index="0" speed="13.89" length="14.40" shape="361.60,392.80 361.60,407.20"/>
    </edge>
    <edge id=":1_10" function="internal">
        <lane id=":1_10_0" index="0" speed="8.00" length="4.07" shape="361.60,392.80 361.05,396.65 360.96,396.80"/>
    </edge>
    <edge id=":1_11" function="internal">
        <lane id=":1_11_0" index="0" speed="3.65" length="1.44" shape="361.60,392.80 360.80,394.00"/>
    </edge>
    <edge id=":1_18" function="internal">
        <lane id=":1_18_0" index="0" speed="8.00" length="10.13" shape="360.96,396.80 359.40,399.40 356.65,401.05 352.80,401.60"/>
    </edge>
    <edge id=":1_19" function="internal">
        <lane id=":1_19_0" index="0" speed="3.65" length="3.23" shape="360.80,394.00 360.00,394.40 359.20,394.00 358.40,392.80"/>
    </edge>
    <edge id=":1_12" function="internal">
        <lane id=":1_12_0" index="0" speed="6.51" length="9.03" shape="352.80,398.40 355.25,398.05 357.00,397.00 358.05,395.25 358.40,392.80"/>
    </edge>
    <edge id=":1_13" function="internal">
        <lane id=":1_13_0" index="0" speed="13.89" length="14.40" shape="352.80,398.40 367.20,398.40"/>
    </edge>
    <edge id=":1_14" function="internal">
        <lane id=":1_14_0" index="0" speed="8.00" length="14.19" shape="352.80,398.40 356.65,398.95 359.40,400.60 361.05,403.35 361.60,407.20"/>
    </edge>
    <edge id=":1_15" function="internal">
        <lane id=":1_15_0" index="0" speed="3.65" length="4.67" shape="352.80,398.40 354.00,399.20 354.40,400.00 354.00,400.80 352.80,401.60"/>
    </edge>
    <edge id=":10_0" function="internal">
        <lane id=":10_0_0" index="0" speed="6.51" length="9.03" shape="318.40,407.20 318.05,404.75 317.00,403.00 315.25,401.95 312.80,401.60"/>
    </edge>
    <edge id=":10_1" function="internal">
        <lane id=":10_1_0" index="0" speed="13.89" length="14.40" shape="318.40,407.20 318.40,392.80"/>
    </edge>
    <edge id=":10_2" function="internal">
        <lane id=":10_2_0" index="0" speed="8.00" length="4.07" shape="318.40,407.20 318.95,403.35 319.04,403.20"/>
    </edge>
    <edge id=":10_3" function="internal">
        <lane id=":10_3_0" index="0" speed="3.65" length="1.44" shape="318.40,407.20 319.20,406.00"/>
    </edge>
    <edge id=":10_16" function="internal">
        <lane id=":10_16_0" index="0" speed="8.00" length="10.13" shape="319.04,403.20 320.60,400.60 323.35,398.95 327.20,398.40"/>
    </edge>
    <edge id=":10_17" function="internal">
        <lane id=":10_17_0" index="0" speed="3.65" length="3.23" shape="319.20,406.00 320.00,405.60 320.80,406.00 321.60,407.20"/>
    </edge>
    <edge id=":10_4" function="internal">
        <lane id=":10_4_0" index="0" speed="6.51" length="9.03" shape="327.20,401.60 324.75,401.95 323.00,403.00 321.95,404.75 321.60,407.20"/>
    </edge>
    <edge id=":10_5" function="internal">
        <lane id=":10_5_0" index="0" speed="13.89" length="14.40" shape="327.20,401.60 312.80,401.60"/>
    </edge>
    <edge id=":10_6" function="internal">
        <lane id=":10_6_0" index="0" speed="8.00" length="14.19" shape="327.20,401.60 323.35,401.05 320.60,399.40 318.95,396.65 318.40,392.80"/>
    </edge>
    <edge id=":10_7" function="internal">
        <lane id=":10_7_0" index="0" speed="3.65" length="4.67" shape="327.20,401.60 326.00,400.80 325.60,400.00 326.00,399.20 327.20,398.40"/>
    </edge>
    <edge id=":10_8" function="internal">
        <lane id=":10_8_0" index="0" speed="6.51" length="9.03" shape="321.60,392.80 321.95,395.25 323.00,397.00 324.75,398.05 327.20,398.40"/>
    </edge>
    <edge id=":10_9" function="internal">
        <lane id=":10_9_0" index="0" speed="13.89" length="14.40" shape="321.60,392.80 321.60,407.20"/>
    </edge>
    <edge id=":10_10" function="internal">
        <lane id=":10_10_0" index="0" speed="8.00" length="4.07" shape="321.60,392.80 321.05,396.65 320.96,396.80"/>
    </edge>
    <edge id=":10_11" function="internal">
        <lane id=":10_11_0" index="0" speed="3.65" length="1.44" shape="321.60,392.80 320.80,394.00"/>
    </edge>
    <edge id=":10_18" function="internal">
        <lane id=":10_18_0" index="0" speed="8.00" length="10.13" shape="320.96,396.80 319.40,399.40 316.65,401.05 312.80,401.60"/>
    </edge>
    <edge id=":10_19" function="internal">
        <lane id=":10_19_0" index="0" speed="3.65" length="3.23" shape="320.80,394.00 320.00,394.40 319.20,394.00 318.40,392.80"/>
    </edge>
    <edge id=":10_12" function="internal">
        <lane id=":10_12_0" index="0" speed="6.51" length="9.03" shape="312.80,398.40 315.25,398.05 317.00,397.00 318.05,395.25 318.40,392.80"/>
    </edge>
    <edge id=":10_13" function="internal">
        <lane id=":10_13_0" index="0" speed="13.89" length="14.40" shape="312.80,398.40 327.20,398.40"/>
    </edge>
    <edge id=":10_14" function="internal">
        <lane id=":10_14_0" index="0" speed="8.00" length="14.19" shape="312.80,398.40 316.65,398.95 319.40,400.60 321.05,403.35 321.60,407.20"/>
    </edge>
    <edge id=":10_15" function="internal">
        <lane id=":10_15_0" index="0" speed="3.65" length="4.67" shape="312.80,398.40 314.00,399.20 314.40,400.00 314.00,400.80 312.80,401.60"/>
    </edge>
    <edge id=":1041_0" function="internal">
        <lane id=":1041_0_0" index="0" speed="13.89" length="14.40" shape="478.40,367.20 478.40,352.80"/>
    </edge>
    <edge id=":1041_1" function="internal">
        <lane id=":1041_1_0" index="0" speed="8.00" length="4.07" shape="478.40,367.20 478.95,363.35 479.04,363.20"/>
    </edge>
    <edge id=":1041_2" function="internal">
        <lane id=":1041_2_0" index="0" speed="3.65" length="1.44" shape="478.40,367.20 479.20,366.00"/>
    </edge>
    <edge id=":1041_9" function="internal">
        <lane id=":1041_9_0" index="0" speed="8.00" length="10.13" shape="479.04,363.20 480.60,360.60 483.35,358.95 487.20,358.40"/>
    </edge>
    <edge id=":1041_10" function="internal">
        <lane id=":1041_10_0" index="0" speed="3.65" length="3.23" shape="479.20,366.00 480.00,365.60 480.80,366.00 481.60,367.20"/>
    </edge>
    <edge id=":1041_3" function="internal">
        <lane id=":1041_3_0" index="0" speed="6.51" length="9.03" shape="487.20,361.60 484.75,361.95 483.00,363.00 481.95,364.75 481.60,367.20"/>
    </edge>
    <edge id=":1041_4" function="internal">
        <lane id=":1041_4_0" index="0" speed="8.00" length="14.19" shape="487.20,361.60 483.35,361.05 480.60,359.40 478.95,356.65 478.40,352.80"/>
    </edge>
    <edge id=":1041_5" function="internal">
        <lane id=":1041_5_0" index="0" speed="3.65" length="4.67" shape="487.20,361.60 486.00,360.80 485.60,360.00 486.00,359.20 487.20,358.40"/>
    </edge>
    <edge id=":1041_6" function="internal">
        <lane id=":1041_6_0" index="0" speed="6.51" length="9.03" shape="481.60,352.80 481.95,355.25 483.00,357.00 484.75,358.05 487.20,358.40"/>
    </edge>
    <edge id=":1041_7" function="internal">
        <lane id=":1041_7_0" index="0" speed="13.89" length="14.40" shape="481.60,352.80 481.60,367.20"/>
    </edge>
    <edge id=":1041_8" function="internal">
        <lane id=":1041_8_0" index="0" speed="3.65" length="1.44" shape="481.60,352.80 480.80,354.00"/>
    </edge>
    <edge id=":1041_11" function="internal">
        <lane id=":1041_11_0" index="0" speed="3.65" length="3.23" shape="480.80,354.00 480.00,354.40 479.20,354.00 478.40,352.80"/>
    </edge>
    <edge id=":1043_0" function="internal">
        <lane id=":1043_0_0" index="0" speed="8.54" length="16.33" shape="558.40,411.73 557.77,407.30 555.87,404.13 552.70,402.23 548.27,401.60"/>
    </edge>
    <edge id=":1043_1" function="internal">
        <lane id=":1043_1_0" index="0" speed="13.89" length="20.98" shape="558.40,411.73 557.91,406.40 556.44,401.47 554.00,396.95 550.58,392.84"/>
    </edge>
    <edge id=":1043_2" function="internal">
        <lane id=":1043_2_0" index="0" speed="9.73" length="21.49" shape="558.40,411.73 559.23,405.90 561.73,401.73 565.90,399.23 571.73,398.40"/>
    </edge>
    <edge id=":1043_3" function="internal">
        <lane id=":1043_3_0" index="0" speed="7.42" length="19.31" shape="558.40,411.73 559.09,405.59 561.16,402.79 564.60,403.31 569.42,407.16"/>
    </edge>
    <edge id=":1043_4" function="internal">
        <lane id=":1043_4_0" index="0" speed="3.65" length="4.67" shape="558.40,411.73 559.20,410.53 560.00,410.13 560.80,410.53 561.60,411.73"/>
    </edge>
    <edge id=":1043_5" function="internal">
        <lane id=":1043_5_0" index="0" speed="5.47" length="9.74" shape="567.16,409.42 564.73,407.48 562.99,407.22 561.95,408.63 561.60,411.73"/>
    </edge>
    <edge id=":1043_6" function="internal">
        <lane id=":1043_6_0" index="0" speed="13.89" length="20.98" shape="567.16,409.42 563.05,406.00 558.53,403.56 553.60,402.09 548.27,401.60"/>
    </edge>
    <edge id=":1043_7" function="internal">
        <lane id=":1043_7_0" index="0" speed="13.89" length="23.45" shape="567.16,409.42 550.58,392.84"/>
    </edge>
    <edge id=":1043_8" function="internal">
        <lane id=":1043_8_0" index="0" speed="7.42" length="6.00" shape="567.16,409.42 563.42,404.73"/>
    </edge>
    <edge id=":1043_9" function="internal">
        <lane id=":1043_9_0" index="0" speed="3.65" length="1.44" shape="567.16,409.42 566.88,408.01"/>
    </edge>
    <edge id=":1043_25" function="internal">
        <lane id=":1043_25_0" index="0" speed="7.42" length="13.30" shape="563.42,404.73 563.31,404.60 562.79,401.16 565.59,399.09 571.73,398.40"/>
    </edge>
    <edge id=":1043_26" function="internal">
        <lane id=":1043_26_0" index="0" speed="3.65" length="3.23" shape="566.88,408.01 567.16,407.16 568.01,406.88 569.42,407.16"/>
    </edge>
    <edge id=":1043_10" function="internal">
        <lane id=":1043_10_0" index="0" speed="5.47" length="9.74" shape="571.73,401.60 568.63,401.95 567.22,402.99 567.48,404.73 569.42,407.16"/>
    </edge>
    <edge id=":1043_11" function="internal">
        <lane id=":1043_11_0" index="0" speed="8.54" length="16.33" shape="571.73,401.60 567.30,402.23 564.13,404.13 562.23,407.30 561.60,411.73"/>
    </edge>
    <edge id=":1043_12" function="internal">
        <lane id=":1043_12_0" index="0" speed="13.89" length="23.45" shape="571.73,401.60 548.27,401.60"/>
    </edge>
    <edge id=":1043_13" function="internal">
        <lane id=":1043_13_0" index="0" speed="13.89" length="23.26" shape="571.73,401.60 566.42,400.85 560.47,398.86 554.86,396.06 550.58,392.84"/>
    </edge>
    <edge id=":1043_14" function="internal">
        <lane id=":1043_14_0" index="0" speed="3.65" length="4.67" shape="571.73,401.60 570.53,400.80 570.13,400.00 570.53,399.20 571.73,398.40"/>
    </edge>
    <edge id=":1043_15" function="internal">
        <lane id=":1043_15_0" index="0" speed="13.89" length="20.98" shape="552.84,390.58 556.95,394.00 561.47,396.44 566.40,397.91 571.73,398.40"/>
    </edge>
    <edge id=":1043_16" function="internal">
        <lane id=":1043_16_0" index="0" speed="13.89" length="23.45" shape="552.84,390.58 569.42,407.16"/>
    </edge>
    <edge id=":1043_17" function="internal">
        <lane id=":1043_17_0" index="0" speed="13.89" length="6.48" shape="552.84,390.58 556.67,395.18 556.90,395.61"/>
    </edge>
    <edge id=":1043_18" function="internal">
        <lane id=":1043_18_0" index="0" speed="7.42" length="6.00" shape="552.84,390.58 556.58,395.27"/>
    </edge>
    <edge id=":1043_19" function="internal">
        <lane id=":1043_19_0" index="0" speed="3.65" length="1.44" shape="552.84,390.58 553.12,391.99"/>
    </edge>
    <edge id=":1043_27" function="internal">
        <lane id=":1043_27_0" index="0" speed="13.89" length="17.01" shape="556.90,395.61 559.41,400.24 561.05,405.76 561.60,411.73"/>
    </edge>
    <edge id=":1043_28" function="internal">
        <lane id=":1043_28_0" index="0" speed="7.42" length="13.30" shape="556.58,395.27 556.69,395.40 557.21,398.84 554.41,400.91 548.27,401.60"/>
    </edge>
    <edge id=":1043_29" function="internal">
        <lane id=":1043_29_0" index="0" speed="3.65" length="3.23" shape="553.12,391.99 552.84,392.84 551.99,393.12 550.58,392.84"/>
    </edge>
    <edge id=":1043_20" function="internal">
        <lane id=":1043_20_0" index="0" speed="5.47" length="9.74" shape="548.27,398.40 551.37,398.05 552.78,397.01 552.52,395.27 550.58,392.84"/>
    </edge>
    <edge id=":1043_21" function="internal">
        <lane id=":1043_21_0" index="0" speed="13.89" length="23.45" shape="548.27,398.40 571.73,398.40"/>
    </edge>
    <edge id=":1043_22" function="internal">
        <lane id=":1043_22_0" index="0" speed="13.89" length="23.49" shape="548.27,398.40 554.24,398.95 559.76,400.59 564.82,403.33 569.42,407.16"/>
    </edge>
    <edge id=":1043_23" function="internal">
        <lane id=":1043_23_0" index="0" speed="9.73" length="21.49" shape="548.27,398.40 554.10,399.23 558.27,401.73 560.77,405.90 561.60,411.73"/>
    </edge>
    <edge id=":1043_24" function="internal">
        <lane id=":1043_24_0" index="0" speed="3.65" length="4.67" shape="548.27,398.40 549.47,399.20 549.87,400.00 549.47,400.80 548.27,401.60"/>
    </edge>
    <edge id=":1049_0" function="internal">
        <lane id=":1049_0_0" index="0" speed="3.65" length="4.67" shape="401.60,760.00 400.80,761.20 400.00,761.60 399.20,761.20 398.40,760.00"/>
    </edge>
    <edge id=":1067_0" function="internal">
        <lane id=":1067_0_0" index="0" speed="3.65" length="4.67" shape="360.00,681.60 358.80,680.80 358.40,680.00 358.80,679.20 360.00,678.40"/>
    </edge>
    <edge id=":1069_0" function="internal">
        <lane id=":1069_0_0" index="0" speed="6.51" length="9.03" shape="478.40,687.20 478.05,684.75 477.00,683.00 475.25,681.95 472.80,681.60"/>
    </edge>
    <edge id=":1069_1" function="internal">
        <lane id=":1069_1_0" index="0" speed="13.89" length="16.80" shape="478.40,687.20 478.75,683.20 479.70,678.94 481.06,674.78 482.67,671.08"/>
    </edge>
    <edge id=":1069_2" function="internal">
        <lane id=":1069_2_0" index="0" speed="8.42" length="15.82" shape="478.40,687.20 479.07,683.35 481.09,680.60 484.46,678.95 489.18,678.40"/>
    </edge>
    <edge id=":1069_3" function="internal">
        <lane id=":1069_3_0" index="0" speed="3.65" length="4.67" shape="478.40,687.20 479.20,686.00 480.00,685.60 480.80,686.00 481.60,687.20"/>
    </edge>
    <edge id=":1069_4" function="internal">
        <lane id=":1069_4_0" index="0" speed="7.02" length="10.67" shape="489.18,681.60 485.86,681.95 483.49,683.00 482.07,684.75 481.60,687.20"/>
    </edge>
    <edge id=":1069_5" function="internal">
        <lane id=":1069_5_0" index="0" speed="13.89" length="16.38" shape="489.18,681.60 472.80,681.60"/>
    </edge>
    <edge id=":1069_6" function="internal">
        <lane id=":1069_6_0" index="0" speed="7.44" length="4.86" shape="489.18,681.60 484.36,680.94"/>
    </edge>
    <edge id=":1069_7" function="internal">
        <lane id=":1069_7_0" index="0" speed="3.65" length="1.44" shape="489.18,681.60 487.98,680.80"/>
    </edge>
    <edge id=":1069_16" function="internal">
        <lane id=":1069_16_0" index="0" speed="7.44" length="11.54" shape="484.36,680.94 481.67,678.97 481.11,675.68 482.67,671.08"/>
    </edge>
    <edge id=":1069_17" function="internal">
        <lane id=":1069_17_0" index="0" speed="3.65" length="3.23" shape="487.98,680.80 487.58,680.00 487.98,679.20 489.18,678.40"/>
    </edge>
    <edge id=":1069_8" function="internal">
        <lane id=":1069_8_0" index="0" speed="5.74" length="9.18" shape="485.54,672.51 484.66,675.09 484.97,676.93 486.48,678.03 489.18,678.40"/>
    </edge>
    <edge id=":1069_9" function="internal">
        <lane id=":1069_9_0" index="0" speed="13.89" length="15.33" shape="485.54,672.51 483.98,675.99 482.73,679.66 481.90,683.42 481.60,687.20"/>
    </edge>
    <edge id=":1069_10" function="internal">
        <lane id=":1069_10_0" index="0" speed="10.47" length="16.19" shape="485.54,672.51 483.16,675.85 479.85,678.76 476.20,680.82 472.80,681.60"/>
    </edge>
    <edge id=":1069_11" function="internal">
        <lane id=":1069_11_0" index="0" speed="3.65" length="4.67" shape="485.54,672.51 484.28,673.22 483.39,673.22 482.85,672.51 482.67,671.08"/>
    </edge>
    <edge id=":1069_12" function="internal">
        <lane id=":1069_12_0" index="0" speed="9.42" length="12.97" shape="472.80,678.40 475.75,677.94 478.37,676.57 480.68,674.28 482.67,671.08"/>
    </edge>
    <edge id=":1069_13" function="internal">
        <lane id=":1069_13_0" index="0" speed="13.89" length="16.38" shape="472.80,678.40 489.18,678.40"/>
    </edge>
    <edge id=":1069_14" function="internal">
        <lane id=":1069_14_0" index="0" speed="8.00" length="4.07" shape="472.80,678.40 476.65,678.95 476.80,679.04"/>
    </edge>
    <edge id=":1069_15" function="internal">
        <lane id=":1069_15_0" index="0" speed="3.65" length="1.44" shape="472.80,678.40 474.00,679.20"/>
    </edge>
    <edge id=":1069_18" function="internal">
        <lane id=":1069_18_0" index="0" speed="8.00" length="10.13" shape="476.80,679.04 479.40,680.60 481.05,683.35 481.60,687.20"/>
    </edge>
    <edge id=":1069_19" function="internal">
        <lane id=":1069_19_0" index="0" speed="3.65" length="3.23" shape="474.00,679.20 474.40,680.00 474.00,680.80 472.80,681.60"/>
    </edge>
    <edge id=":1076_0" function="internal">
        <lane id=":1076_0_0" index="0" speed="9.42" length="12.97" shape="607.20,601.60 604.25,602.06 601.63,603.43 599.32,605.72 597.33,608.92"/>
    </edge>
    <edge id=":1076_1" function="internal">
        <lane id=":1076_1_0" index="0" speed="13.89" length="16.38" shape="607.20,601.60 590.82,601.60"/>
    </edge>
    <edge id=":1076_2" function="internal">
        <lane id=":1076_2_0" index="0" speed="8.00" length="4.07" shape="607.20,601.60 603.35,601.05 603.20,600.96"/>
    </edge>
    <edge id=":1076_3" function="internal">
        <lane id=":1076_3_0" index="0" speed="3.65" length="1.44" shape="607.20,601.60 606.00,600.80"/>
    </edge>
    <edge id=":1076_16" function="internal">
        <lane id=":1076_16_0" index="0" speed="8.00" length="10.13" shape="603.20,600.96 600.60,599.40 598.95,596.65 598.40,592.80"/>
    </edge>
    <edge id=":1076_17" function="internal">
        <lane id=":1076_17_0" index="0" speed="3.65" length="3.23" shape="606.00,600.80 605.60,600.00 606.00,599.20 607.20,598.40"/>
    </edge>
    <edge id=":1076_4" function="internal">
        <lane id=":1076_4_0" index="0" speed="6.51" length="9.03" shape="601.60,592.80 601.95,595.25 603.00,597.00 604.75,598.05 607.20,598.40"/>
    </edge>
    <edge id=":1076_5" function="internal">
        <lane id=":1076_5_0" index="0" speed="13.89" length="16.80" shape="601.60,592.80 601.25,596.80 600.30,601.06 598.94,605.22 597.33,608.92"/>
    </edge>
    <edge id=":1076_6" function="internal">
        <lane id=":1076_6_0" index="0" speed="8.42" length="15.82" shape="601.60,592.80 600.93,596.65 598.91,599.40 595.54,601.05 590.82,601.60"/>
    </edge>
    <edge id=":1076_7" function="internal">
        <lane id=":1076_7_0" index="0" speed="3.65" length="4.67" shape="601.60,592.80 600.80,594.00 600.00,594.40 599.20,594.00 598.40,592.80"/>
    </edge>
    <edge id=":1076_8" function="internal">
        <lane id=":1076_8_0" index="0" speed="7.02" length="10.67" shape="590.82,598.40 594.14,598.05 596.51,597.00 597.93,595.25 598.40,592.80"/>
    </edge>
    <edge id=":1076_9" function="internal">
        <lane id=":1076_9_0" index="0" speed="13.89" length="16.38" shape="590.82,598.40 607.20,598.40"/>
    </edge>
    <edge id=":1076_10" function="internal">
        <lane id=":1076_10_0" index="0" speed="7.44" length="4.86" shape="590.82,598.40 595.64,599.06"/>
    </edge>
    <edge id=":1076_11" function="internal">
        <lane id=":1076_11_0" index="0" speed="3.65" length="1.44" shape="590.82,598.40 592.02,599.20"/>
    </edge>
    <edge id=":1076_18" function="internal">
        <lane id=":1076_18_0" index="0" speed="7.44" length="11.54" shape="595.64,599.06 598.33,601.03 598.89,604.32 597.33,608.92"/>
    </edge>
    <edge id=":1076_19" function="internal">
        <lane id=":1076_19_0" index="0" speed="3.65" length="3.23" shape="592.02,599.20 592.42,600.00 592.02,600.80 590.82,601.60"/>
    </edge>
    <edge id=":1076_12" function="internal">
        <lane id=":1076_12_0" index="0" speed="5.74" length="9.18" shape="594.46,607.49 595.34,604.91 595.03,603.07 593.52,601.97 590.82,601.60"/>
    </edge>
    <edge id=":1076_13" function="internal">
        <lane id=":1076_13_0" index="0" speed="13.89" length="15.33" shape="594.46,607.49 596.02,604.01 597.27,600.34 598.10,596.58 598.40,592.80"/>
    </edge>
    <edge id=":1076_14" function="internal">
        <lane id=":1076_14_0" index="0" speed="10.47" length="16.19" shape="594.46,607.49 596.84,604.15 600.15,601.24 603.80,599.18 607.20,598.40"/>
    </edge>
    <edge id=":1076_15" function="internal">
        <lane id=":1076_15_0" index="0" speed="3.65" length="4.67" shape="594.46,607.49 595.72,606.78 596.61,606.78 597.15,607.49 597.33,608.92"/>
    </edge>
    <edge id=":1199_0" function="internal">
        <lane id=":1199_0_0" index="0" speed="6.08" length="7.74" shape="483.20,721.60 481.10,721.30 479.60,720.40 478.70,718.90 478.40,716.80"/>
    </edge>
    <edge id=":1199_1" function="internal">
        <lane id=":1199_1_0" index="0" speed="3.90" length="2.58" shape="481.60,716.80 481.70,717.50 482.00,718.00 482.50,718.30 483.20,718.40"/>
    </edge>
    <edge id=":1203_0" function="internal">
        <lane id=":1203_0_0" index="0" speed="13.89" length="18.58" shape="569.18,681.60 564.96,682.09 560.84,683.56 556.79,686.00 552.84,689.42"/>
    </edge>
    <edge id=":1203_1" function="internal">
        <lane id=":1203_1_0" index="0" speed="13.89" length="20.90" shape="569.18,681.60 548.27,681.60"/>
    </edge>
    <edge id=":1203_2" function="internal">
        <lane id=":1203_2_0" index="0" speed="7.44" length="4.86" shape="569.18,681.60 564.36,680.94"/>
    </edge>
    <edge id=":1203_3" function="internal">
        <lane id=":1203_3_0" index="0" speed="3.65" length="1.44" shape="569.18,681.60 567.98,680.80"/>
    </edge>
    <edge id=":1203_16" function="internal">
        <lane id=":1203_16_0" index="0" speed="7.44" length="11.54" shape="564.36,680.94 561.67,678.97 561.11,675.68 562.67,671.08"/>
    </edge>
    <edge id=":1203_17" function="internal">
        <lane id=":1203_17_0" index="0" speed="3.65" length="3.23" shape="567.98,680.80 567.58,680.00 567.98,679.20 569.18,678.40"/>
    </edge>
    <edge id=":1203_4" function="internal">
        <lane id=":1203_4_0" index="0" speed="5.74" length="9.18" shape="565.54,672.51 564.66,675.09 564.97,676.93 566.48,678.03 569.18,678.40"/>
    </edge>
    <edge id=":1203_5" function="internal">
        <lane id=":1203_5_0" index="0" speed="13.89" length="21.20" shape="565.54,672.51 563.11,676.54 559.68,681.32 556.00,685.92 552.84,689.42"/>
    </edge>
    <edge id=":1203_6" function="internal">
        <lane id=":1203_6_0" index="0" speed="11.65" length="20.18" shape="565.54,672.51 562.77,675.85 558.44,678.76 553.33,680.82 548.27,681.60"/>
    </edge>
    <edge id=":1203_7" function="internal">
        <lane id=":1203_7_0" index="0" speed="3.65" length="4.67" shape="565.54,672.51 564.28,673.22 563.39,673.22 562.85,672.51 562.67,671.08"/>
    </edge>
    <edge id=":1203_8" function="internal">
        <lane id=":1203_8_0" index="0" speed="10.74" length="17.04" shape="548.27,678.40 553.20,677.94 557.24,676.57 560.40,674.28 562.67,671.08"/>
    </edge>
    <edge id=":1203_9" function="internal">
        <lane id=":1203_9_0" index="0" speed="13.89" length="20.90" shape="548.27,678.40 569.18,678.40"/>
    </edge>
    <edge id=":1203_10" function="internal">
        <lane id=":1203_10_0" index="0" speed="7.42" length="6.00" shape="548.27,678.40 554.24,679.07"/>
    </edge>
    <edge id=":1203_11" function="internal">
        <lane id=":1203_11_0" index="0" speed="3.65" length="1.44" shape="548.27,678.40 549.47,679.20"/>
    </edge>
    <edge id=":1203_18" function="internal">
        <lane id=":1203_18_0" index="0" speed="7.42" length="13.30" shape="554.24,679.07 554.41,679.09 557.21,681.16 556.69,684.60 552.84,689.42"/>
    </edge>
    <edge id=":1203_19" function="internal">
        <lane id=":1203_19_0" index="0" speed="3.65" length="3.23" shape="549.47,679.20 549.87,680.00 549.47,680.80 548.27,681.60"/>
    </edge>
    <edge id=":1203_12" function="internal">
        <lane id=":1203_12_0" index="0" speed="5.47" length="9.74" shape="550.58,687.16 552.52,684.73 552.78,682.99 551.37,681.95 548.27,681.60"/>
    </edge>
    <edge id=":1203_13" function="internal">
        <lane id=":1203_13_0" index="0" speed="13.89" length="20.17" shape="550.58,687.16 553.64,683.78 557.11,679.47 560.34,674.98 562.67,671.08"/>
    </edge>
    <edge id=":1203_14" function="internal">
        <lane id=":1203_14_0" index="0" speed="13.89" length="20.88" shape="550.58,687.16 554.64,683.94 559.67,681.14 564.81,679.15 569.18,678.40"/>
    </edge>
    <edge id=":1203_15" function="internal">
        <lane id=":1203_15_0" index="0" speed="3.65" length="4.67" shape="550.58,687.16 551.99,686.88 552.84,687.16 553.12,688.01 552.84,689.42"/>
    </edge>
    <edge id=":1210_0" function="internal">
        <lane id=":1210_0_0" index="0" speed="13.42" length="16.74" shape="598.40,527.20 597.91,523.85 596.44,520.34 594.00,516.67 590.58,512.84"/>
    </edge>
    <edge id=":1210_1" function="internal">
        <lane id=":1210_1_0" index="0" speed="13.89" length="18.93" shape="598.40,527.20 598.40,508.27"/>
    </edge>
    <edge id=":1210_2" function="internal">
        <lane id=":1210_2_0" index="0" speed="8.00" length="4.07" shape="598.40,527.20 598.95,523.35 599.04,523.20"/>
    </edge>
    <edge id=":1210_3" function="internal">
        <lane id=":1210_3_0" index="0" speed="3.65" length="1.44" shape="598.40,527.20 599.20,526.00"/>
    </edge>
    <edge id=":1210_16" function="internal">
        <lane id=":1210_16_0" index="0" speed="8.00" length="10.13" shape="599.04,523.20 600.60,520.60 603.35,518.95 607.20,518.40"/>
    </edge>
    <edge id=":1210_17" function="internal">
        <lane id=":1210_17_0" index="0" speed="3.65" length="3.23" shape="599.20,526.00 600.00,525.60 600.80,526.00 601.60,527.20"/>
    </edge>
    <edge id=":1210_4" function="internal">
        <lane id=":1210_4_0" index="0" speed="6.51" length="9.03" shape="607.20,521.60 604.75,521.95 603.00,523.00 601.95,524.75 601.60,527.20"/>
    </edge>
    <edge id=":1210_5" function="internal">
        <lane id=":1210_5_0" index="0" speed="13.89" length="19.24" shape="607.20,521.60 603.21,521.05 599.11,519.41 594.90,516.67 590.58,512.84"/>
    </edge>
    <edge id=":1210_6" function="internal">
        <lane id=":1210_6_0" index="0" speed="8.71" length="17.02" shape="607.20,521.60 603.97,520.27 601.15,516.93 599.16,512.60 598.40,508.27"/>
    </edge>