<?xml version="1.0" encoding="UTF-8"?>

<!-- generated on 2024-01-10 14:06:09 by Eclipse SUMO netedit Version v1_19_0+0143-4ff360ee235
<configuration xmlns:xsi="http://www.w3.org/2001/XMLSchema-instance" xsi:noNamespaceSchemaLocation="http://sumo.dlr.de/xsd/neteditConfiguration.xsd">

    <input>
        <sumo-net-file value="/Users/yara/Documents/UTWENTE/Academic Research skills/SpyingOnCyclists/sumoFiles/medium/leftbottom.net.xml"/>
    </input>

    <output>
        <output-file value="/Users/yara/Documents/UTWENTE/Academic Research skills/SpyingOnCyclists/sumoFiles/medium/leftbottom.net.xml"/>
    </output>

    <processing>
        <geometry.min-radius.fix.railways value="false"/>
        <geometry.max-grade.fix value="false"/>
        <offset.disable-normalization value="true"/>
        <lefthand value="0"/>
    </processing>

    <junctions>
        <no-turnarounds value="true"/>
        <junctions.corner-detail value="5"/>
        <junctions.limit-turn-speed value="5.50"/>
        <rectangular-lane-cut value="0"/>
    </junctions>

    <pedestrian>
        <walkingareas value="0"/>
    </pedestrian>

</configuration>
-->

<net version="1.16" junctionCornerDetail="5" limitTurnSpeed="5.50" xmlns:xsi="http://www.w3.org/2001/XMLSchema-instance" xsi:noNamespaceSchemaLocation="http://sumo.dlr.de/xsd/net_file.xsd">

    <location netOffset="1040.00,880.00" convBoundary="40.00,380.00,520.00,720.00" origBoundary="-1040.00,-880.00,1040.00,720.00" projParameter="!"/>

    <edge id=":15691_0" function="internal">
        <lane id=":15691_0_0" index="0" speed="6.51" length="9.03" shape="438.40,567.20 438.05,564.75 437.00,563.00 435.25,561.95 432.80,561.60"/>
    </edge>
    <edge id=":15691_1" function="internal">
        <lane id=":15691_1_0" index="0" speed="13.89" length="14.40" shape="438.40,567.20 438.40,552.80"/>
    </edge>
    <edge id=":15691_2" function="internal">
        <lane id=":15691_2_0" index="0" speed="8.00" length="4.07" shape="438.40,567.20 438.95,563.35 439.04,563.20"/>
    </edge>
    <edge id=":15691_3" function="internal">
        <lane id=":15691_3_0" index="0" speed="3.65" length="1.44" shape="438.40,567.20 439.20,566.00"/>
    </edge>
    <edge id=":15691_16" function="internal">
        <lane id=":15691_16_0" index="0" speed="8.00" length="10.13" shape="439.04,563.20 440.60,560.60 443.35,558.95 447.20,558.40"/>
    </edge>
    <edge id=":15691_17" function="internal">
        <lane id=":15691_17_0" index="0" speed="3.65" length="3.23" shape="439.20,566.00 440.00,565.60 440.80,566.00 441.60,567.20"/>
    </edge>
    <edge id=":15691_4" function="internal">
        <lane id=":15691_4_0" index="0" speed="6.51" length="9.03" shape="447.20,561.60 444.75,561.95 443.00,563.00 441.95,564.75 441.60,567.20"/>
    </edge>
    <edge id=":15691_5" function="internal">
        <lane id=":15691_5_0" index="0" speed="13.89" length="14.40" shape="447.20,561.60 432.80,561.60"/>
    </edge>
    <edge id=":15691_6" function="internal">
        <lane id=":15691_6_0" index="0" speed="8.00" length="14.19" shape="447.20,561.60 443.35,561.05 440.60,559.40 438.95,556.65 438.40,552.80"/>
    </edge>
    <edge id=":15691_7" function="internal">
        <lane id=":15691_7_0" index="0" speed="3.65" length="4.67" shape="447.20,561.60 446.00,560.80 445.60,560.00 446.00,559.20 447.20,558.40"/>
    </edge>
    <edge id=":15691_8" function="internal">
        <lane id=":15691_8_0" index="0" speed="6.51" length="9.03" shape="441.60,552.80 441.95,555.25 443.00,557.00 444.75,558.05 447.20,558.40"/>
    </edge>
    <edge id=":15691_9" function="internal">
        <lane id=":15691_9_0" index="0" speed="13.89" length="14.40" shape="441.60,552.80 441.60,567.20"/>
    </edge>
    <edge id=":15691_10" function="internal">
        <lane id=":15691_10_0" index="0" speed="8.00" length="4.07" shape="441.60,552.80 441.05,556.65 440.96,556.80"/>
    </edge>
    <edge id=":15691_11" function="internal">
        <lane id=":15691_11_0" index="0" speed="3.65" length="1.44" shape="441.60,552.80 440.80,554.00"/>
    </edge>
    <edge id=":15691_18" function="internal">
        <lane id=":15691_18_0" index="0" speed="8.00" length="10.13" shape="440.96,556.80 439.40,559.40 436.65,561.05 432.80,561.60"/>
    </edge>
    <edge id=":15691_19" function="internal">
        <lane id=":15691_19_0" index="0" speed="3.65" length="3.23" shape="440.80,554.00 440.00,554.40 439.20,554.00 438.40,552.80"/>
    </edge>
    <edge id=":15691_12" function="internal">
        <lane id=":15691_12_0" index="0" speed="6.51" length="9.03" shape="432.80,558.40 435.25,558.05 437.00,557.00 438.05,555.25 438.40,552.80"/>
    </edge>
    <edge id=":15691_13" function="internal">
        <lane id=":15691_13_0" index="0" speed="13.89" length="14.40" shape="432.80,558.40 447.20,558.40"/>
    </edge>
    <edge id=":15691_14" function="internal">
        <lane id=":15691_14_0" index="0" speed="8.00" length="14.19" shape="432.80,558.40 436.65,558.95 439.40,560.60 441.05,563.35 441.60,567.20"/>
    </edge>
    <edge id=":15691_15" function="internal">
        <lane id=":15691_15_0" index="0" speed="3.65" length="4.67" shape="432.80,558.40 434.00,559.20 434.40,560.00 434.00,560.80 432.80,561.60"/>
    </edge>
    <edge id=":16577_0" function="internal">
        <lane id=":16577_0_0" index="0" speed="6.51" length="9.03" shape="438.40,487.20 438.05,484.75 437.00,483.00 435.25,481.95 432.80,481.60"/>
    </edge>
    <edge id=":16577_1" function="internal">
        <lane id=":16577_1_0" index="0" speed="13.89" length="14.40" shape="438.40,487.20 438.40,472.80"/>
    </edge>
    <edge id=":16577_2" function="internal">
        <lane id=":16577_2_0" index="0" speed="8.00" length="4.07" shape="438.40,487.20 438.95,483.35 439.04,483.20"/>
    </edge>
    <edge id=":16577_3" function="internal">
        <lane id=":16577_3_0" index="0" speed="3.65" length="1.44" shape="438.40,487.20 439.20,486.00"/>
    </edge>
    <edge id=":16577_16" function="internal">
        <lane id=":16577_16_0" index="0" speed="8.00" length="10.13" shape="439.04,483.20 440.60,480.60 443.35,478.95 447.20,478.40"/>
    </edge>
    <edge id=":16577_17" function="internal">
        <lane id=":16577_17_0" index="0" speed="3.65" length="3.23" shape="439.20,486.00 440.00,485.60 440.80,486.00 441.60,487.20"/>
    </edge>
    <edge id=":16577_4" function="internal">
        <lane id=":16577_4_0" index="0" speed="6.51" length="9.03" shape="447.20,481.60 444.75,481.95 443.00,483.00 441.95,484.75 441.60,487.20"/>
    </edge>
    <edge id=":16577_5" function="internal">
        <lane id=":16577_5_0" index="0" speed="13.89" length="14.40" shape="447.20,481.60 432.80,481.60"/>
    </edge>
    <edge id=":16577_6" function="internal">
        <lane id=":16577_6_0" index="0" speed="8.00" length="14.19" shape="447.20,481.60 443.35,481.05 440.60,479.40 438.95,476.65 438.40,472.80"/>
    </edge>
    <edge id=":16577_7" function="internal">
        <lane id=":16577_7_0" index="0" speed="3.65" length="4.67" shape="447.20,481.60 446.00,480.80 445.60,480.00 446.00,479.20 447.20,478.40"/>
    </edge>
    <edge id=":16577_8" function="internal">
        <lane id=":16577_8_0" index="0" speed="6.51" length="9.03" shape="441.60,472.80 441.95,475.25 443.00,477.00 444.75,478.05 447.20,478.40"/>
    </edge>
    <edge id=":16577_9" function="internal">
        <lane id=":16577_9_0" index="0" speed="13.89" length="14.40" shape="441.60,472.80 441.60,487.20"/>
    </edge>
    <edge id=":16577_10" function="internal">
        <lane id=":16577_10_0" index="0" speed="8.00" length="4.07" shape="441.60,472.80 441.05,476.65 440.96,476.80"/>
    </edge>
    <edge id=":16577_11" function="internal">
        <lane id=":16577_11_0" index="0" speed="3.65" length="1.44" shape="441.60,472.80 440.80,474.00"/>
    </edge>
    <edge id=":16577_18" function="internal">
        <lane id=":16577_18_0" index="0" speed="8.00" length="10.13" shape="440.96,476.80 439.40,479.40 436.65,481.05 432.80,481.60"/>
    </edge>
    <edge id=":16577_19" function="internal">
        <lane id=":16577_19_0" index="0" speed="3.65" length="3.23" shape="440.80,474.00 440.00,474.40 439.20,474.00 438.40,472.80"/>
    </edge>
    <edge id=":16577_12" function="internal">
        <lane id=":16577_12_0" index="0" speed="6.51" length="9.03" shape="432.80,478.40 435.25,478.05 437.00,477.00 438.05,475.25 438.40,472.80"/>
    </edge>
    <edge id=":16577_13" function="internal">
        <lane id=":16577_13_0" index="0" speed="13.89" length="14.40" shape="432.80,478.40 447.20,478.40"/>
    </edge>
    <edge id=":16577_14" function="internal">
        <lane id=":16577_14_0" index="0" speed="8.00" length="14.19" shape="432.80,478.40 436.65,478.95 439.40,480.60 441.05,483.35 441.60,487.20"/>
    </edge>
    <edge id=":16577_15" function="internal">
        <lane id=":16577_15_0" index="0" speed="3.65" length="4.67" shape="432.80,478.40 434.00,479.20 434.40,480.00 434.00,480.80 432.80,481.60"/>
    </edge>
    <edge id=":16583_0" function="internal">
        <lane id=":16583_0_0" index="0" speed="13.89" length="14.40" shape="367.20,561.60 352.80,561.60"/>
    </edge>
    <edge id=":16583_1" function="internal">
        <lane id=":16583_1_0" index="0" speed="8.00" length="4.07" shape="367.20,561.60 363.35,561.05 363.20,560.96"/>
    </edge>
    <edge id=":16583_2" function="internal">
        <lane id=":16583_2_0" index="0" speed="3.65" length="1.44" shape="367.20,561.60 366.00,560.80"/>
    </edge>
    <edge id=":16583_9" function="internal">
        <lane id=":16583_9_0" index="0" speed="8.00" length="10.13" shape="363.20,560.96 360.60,559.40 358.95,556.65 358.40,552.80"/>
    </edge>
    <edge id=":16583_10" function="internal">
        <lane id=":16583_10_0" index="0" speed="3.65" length="3.23" shape="366.00,560.80 365.60,560.00 366.00,559.20 367.20,558.40"/>
    </edge>
    <edge id=":16583_3" function="internal">
        <lane id=":16583_3_0" index="0" speed="6.51" length="9.03" shape="361.60,552.80 361.95,555.25 363.00,557.00 364.75,558.05 367.20,558.40"/>
    </edge>
    <edge id=":16583_4" function="internal">
        <lane id=":16583_4_0" index="0" speed="8.00" length="14.19" shape="361.60,552.80 361.05,556.65 359.40,559.40 356.65,561.05 352.80,561.60"/>
    </edge>
    <edge id=":16583_5" function="internal">
        <lane id=":16583_5_0" index="0" speed="3.65" length="4.67" shape="361.60,552.80 360.80,554.00 360.00,554.40 359.20,554.00 358.40,552.80"/>
    </edge>
    <edge id=":16583_6" function="internal">
        <lane id=":16583_6_0" index="0" speed="6.51" length="9.03" shape="352.80,558.40 355.25,558.05 357.00,557.00 358.05,555.25 358.40,552.80"/>
    </edge>
    <edge id=":16583_7" function="internal">
        <lane id=":16583_7_0" index="0" speed="13.89" length="14.40" shape="352.80,558.40 367.20,558.40"/>
    </edge>
    <edge id=":16583_8" function="internal">
        <lane id=":16583_8_0" index="0" speed="3.65" length="1.44" shape="352.80,558.40 354.00,559.20"/>
    </edge>
    <edge id=":16583_11" function="internal">
        <lane id=":16583_11_0" index="0" speed="3.65" length="3.23" shape="354.00,559.20 354.40,560.00 354.00,560.80 352.80,561.60"/>
    </edge>
    <edge id=":16587_0" function="internal">
        <lane id=":16587_0_0" index="0" speed="13.89" length="16.01" shape="441.60,632.80 441.39,636.70 440.82,640.75 439.95,644.76 438.85,648.51"/>
    </edge>
    <edge id=":16587_1" function="internal">
        <lane id=":16587_1_0" index="0" speed="8.26" length="4.26" shape="441.60,632.80 440.97,636.65 440.77,636.94"/>
    </edge>
    <edge id=":16587_2" function="internal">
        <lane id=":16587_2_0" index="0" speed="3.65" length="1.44" shape="441.60,632.80 440.80,634.00"/>
    </edge>
    <edge id=":16587_9" function="internal">
        <lane id=":16587_9_0" index="0" speed="8.26" length="10.95" shape="440.77,636.94 439.09,639.40 435.95,641.05 431.56,641.60"/>
    </edge>
    <edge id=":16587_10" function="internal">
        <lane id=":16587_10_0" index="0" speed="3.65" length="3.23" shape="440.80,634.00 440.00,634.40 439.20,634.00 438.40,632.80"/>
    </edge>
    <edge id=":16587_3" function="internal">
        <lane id=":16587_3_0" index="0" speed="6.83" length="10.05" shape="431.56,638.40 434.55,638.05 436.69,637.00 437.97,635.25 438.40,632.80"/>
    </edge>
    <edge id=":16587_4" function="internal">
        <lane id=":16587_4_0" index="0" speed="7.55" length="15.59" shape="431.56,638.40 436.01,639.03 438.71,640.93 439.66,644.09 438.85,648.51"/>
    </edge>
    <edge id=":16587_5" function="internal">
        <lane id=":16587_5_0" index="0" speed="3.65" length="4.67" shape="431.56,638.40 432.76,639.20 433.16,640.00 432.76,640.80 431.56,641.60"/>
    </edge>
    <edge id=":16587_6" function="internal">
        <lane id=":16587_6_0" index="0" speed="5.92" length="9.10" shape="435.81,647.50 436.28,644.92 435.73,643.08 434.16,641.97 431.56,641.60"/>
    </edge>
    <edge id=":16587_7" function="internal">
        <lane id=":16587_7_0" index="0" speed="13.89" length="14.99" shape="435.81,647.50 436.88,643.91 437.70,640.25 438.22,636.54 438.40,632.80"/>
    </edge>
    <edge id=":16587_8" function="internal">
        <lane id=":16587_8_0" index="0" speed="3.65" length="1.44" shape="435.81,647.50 436.95,646.62"/>
    </edge>
    <edge id=":16587_11" function="internal">
        <lane id=":16587_11_0" index="0" speed="3.65" length="3.23" shape="436.95,646.62 437.84,646.49 438.47,647.12 438.85,648.51"/>
    </edge>
    <edge id=":17595_0" function="internal">
        <lane id=":17595_0_0" index="0" speed="7.65" length="12.89" shape="458.40,491.73 458.05,487.30 457.00,484.13 455.25,482.23 452.80,481.60"/>
    </edge>
    <edge id=":17595_1" function="internal">
        <lane id=":17595_1_0" index="0" speed="13.89" length="18.93" shape="458.40,491.73 458.40,472.80"/>
    </edge>
    <edge id=":17595_2" function="internal">
        <lane id=":17595_2_0" index="0" speed="7.42" length="6.00" shape="458.40,491.73 459.07,485.76"/>
    </edge>
    <edge id=":17595_3" function="internal">
        <lane id=":17595_3_0" index="0" speed="3.65" length="1.44" shape="458.40,491.73 459.20,490.53"/>
    </edge>
    <edge id=":17595_16" function="internal">
        <lane id=":17595_16_0" index="0" speed="7.42" length="13.30" shape="459.07,485.76 459.09,485.59 461.16,482.79 464.60,483.31 469.42,487.16"/>
    </edge>
    <edge id=":17595_17" function="internal">
        <lane id=":17595_17_0" index="0" speed="3.65" length="3.23" shape="459.20,490.53 460.00,490.13 460.80,490.53 461.60,491.73"/>
    </edge>
    <edge id=":17595_4" function="internal">
        <lane id=":17595_4_0" index="0" speed="5.47" length="9.74" shape="467.16,489.42 464.73,487.48 462.99,487.22 461.95,488.63 461.60,491.73"/>
    </edge>
    <edge id=":17595_5" function="internal">
        <lane id=":17595_5_0" index="0" speed="13.42" length="16.74" shape="467.16,489.42 463.33,486.00 459.66,483.56 456.15,482.09 452.80,481.60"/>
    </edge>
    <edge id=":17595_6" function="internal">
        <lane id=":17595_6_0" index="0" speed="13.89" length="19.06" shape="467.16,489.42 463.94,485.53 461.14,480.94 459.15,476.44 458.40,472.80"/>
    </edge>
    <edge id=":17595_7" function="internal">
        <lane id=":17595_7_0" index="0" speed="3.65" length="4.67" shape="467.16,489.42 466.88,488.01 467.16,487.16 468.01,486.88 469.42,487.16"/>
    </edge>
    <edge id=":17595_8" function="internal">
        <lane id=":17595_8_0" index="0" speed="13.42" length="16.74" shape="461.60,472.80 462.09,476.15 463.56,479.66 466.00,483.33 469.42,487.16"/>
    </edge>
    <edge id=":17595_9" function="internal">
        <lane id=":17595_9_0" index="0" speed="13.89" length="18.93" shape="461.60,472.80 461.60,491.73"/>
    </edge>
    <edge id=":17595_10" function="internal">
        <lane id=":17595_10_0" index="0" speed="8.00" length="4.07" shape="461.60,472.80 461.05,476.65 460.96,476.80"/>
    </edge>
    <edge id=":17595_11" function="internal">
        <lane id=":17595_11_0" index="0" speed="3.65" length="1.44" shape="461.60,472.80 460.80,474.00"/>
    </edge>
    <edge id=":17595_18" function="internal">
        <lane id=":17595_18_0" index="0" speed="8.00" length="10.13" shape="460.96,476.80 459.40,479.40 456.65,481.05 452.80,481.60"/>
    </edge>
    <edge id=":17595_19" function="internal">
        <lane id=":17595_19_0" index="0" speed="3.65" length="3.23" shape="460.80,474.00 460.00,474.40 459.20,474.00 458.40,472.80"/>
    </edge>
    <edge id=":17595_12" function="internal">
        <lane id=":17595_12_0" index="0" speed="6.51" length="9.03" shape="452.80,478.40 455.25,478.05 457.00,477.00 458.05,475.25 458.40,472.80"/>
    </edge>
    <edge id=":17595_13" function="internal">
        <lane id=":17595_13_0" index="0" speed="13.89" length="19.24" shape="452.80,478.40 456.79,478.95 460.89,480.59 465.10,483.33 469.42,487.16"/>
    </edge>
    <edge id=":17595_14" function="internal">
        <lane id=":17595_14_0" index="0" speed="8.71" length="17.02" shape="452.80,478.40 456.03,479.73 458.85,483.07 460.84,487.40 461.60,491.73"/>
    </edge>
    <edge id=":17595_15" function="internal">
        <lane id=":17595_15_0" index="0" speed="3.65" length="4.67" shape="452.80,478.40 454.00,479.20 454.40,480.00 454.00,480.80 452.80,481.60"/>
    </edge>
    <edge id=":17597_0" function="internal">
        <lane id=":17597_0_0" index="0" speed="12.73" length="15.02" shape="438.40,445.33 437.91,442.80 436.44,439.87 434.00,436.55 430.58,432.84"/>
    </edge>
    <edge id=":17597_1" function="internal">
        <lane id=":17597_1_0" index="0" speed="13.89" length="17.05" shape="438.40,445.33 438.40,428.27"/>
    </edge>
    <edge id=":17597_2" function="internal">
        <lane id=":17597_2_0" index="0" speed="13.73" length="3.53" shape="438.40,445.33 438.95,442.16 439.08,441.87"/>
    </edge>
    <edge id=":17597_3" function="internal">
        <lane id=":17597_3_0" index="0" speed="3.65" length="1.44" shape="438.40,445.33 439.20,444.13"/>
    </edge>
    <edge id=":17597_16" function="internal">
        <lane id=":17597_16_0" index="0" speed="13.73" length="13.98" shape="439.08,441.87 440.59,438.64 443.33,434.78 447.16,430.58"/>
    </edge>
    <edge id=":17597_17" function="internal">
        <lane id=":17597_17_0" index="0" speed="3.65" length="3.23" shape="439.20,444.13 440.00,443.73 440.80,444.13 441.60,445.33"/>
    </edge>
    <edge id=":17597_4" function="internal">
        <lane id=":17597_4_0" index="0" speed="12.73" length="15.02" shape="449.42,432.84 446.00,436.55 443.56,439.87 442.09,442.80 441.60,445.33"/>
    </edge>
    <edge id=":17597_5" function="internal">
        <lane id=":17597_5_0" index="0" speed="9.73" length="21.49" shape="449.42,432.84 444.71,436.37 440.00,437.55 435.29,436.37 430.58,432.84"/>
    </edge>
    <edge id=":17597_6" function="internal">
        <lane id=":17597_6_0" index="0" speed="7.42" length="19.31" shape="449.42,432.84 444.60,436.69 441.16,437.21 439.09,434.41 438.40,428.27"/>
    </edge>
    <edge id=":17597_7" function="internal">
        <lane id=":17597_7_0" index="0" speed="3.65" length="4.67" shape="449.42,432.84 448.01,433.12 447.16,432.84 446.88,431.99 447.16,430.58"/>
    </edge>
    <edge id=":17597_8" function="internal">
        <lane id=":17597_8_0" index="0" speed="5.47" length="9.74" shape="441.60,428.27 441.95,431.37 442.99,432.78 444.73,432.52 447.16,430.58"/>
    </edge>
    <edge id=":17597_9" function="internal">
        <lane id=":17597_9_0" index="0" speed="13.89" length="17.05" shape="441.60,428.27 441.60,445.33"/>
    </edge>
    <edge id=":17597_10" function="internal">
        <lane id=":17597_10_0" index="0" speed="7.42" length="6.00" shape="441.60,428.27 440.93,434.24"/>
    </edge>
    <edge id=":17597_11" function="internal">
        <lane id=":17597_11_0" index="0" speed="3.65" length="1.44" shape="441.60,428.27 440.80,429.47"/>
    </edge>
    <edge id=":17597_18" function="internal">
        <lane id=":17597_18_0" index="0" speed="7.42" length="13.30" shape="440.93,434.24 440.91,434.41 438.84,437.21 435.40,436.69 430.58,432.84"/>
    </edge>
    <edge id=":17597_19" function="internal">
        <lane id=":17597_19_0" index="0" speed="3.65" length="3.23" shape="440.80,429.47 440.00,429.87 439.20,429.47 438.40,428.27"/>
    </edge>
    <edge id=":17597_12" function="internal">
        <lane id=":17597_12_0" index="0" speed="5.47" length="9.74" shape="432.84,430.58 435.27,432.52 437.01,432.78 438.05,431.37 438.40,428.27"/>
    </edge>
    <edge id=":17597_13" function="internal">
        <lane id=":17597_13_0" index="0" speed="8.54" length="16.33" shape="432.84,430.58 436.42,433.26 440.00,434.16 443.58,433.26 447.16,430.58"/>
    </edge>
    <edge id=":17597_14" function="internal">
        <lane id=":17597_14_0" index="0" speed="13.73" length="17.52" shape="432.84,430.58 436.67,434.78 439.41,438.64 441.05,442.16 441.60,445.33"/>
    </edge>
    <edge id=":17597_15" function="internal">
        <lane id=":17597_15_0" index="0" speed="3.65" length="4.67" shape="432.84,430.58 433.12,431.99 432.84,432.84 431.99,433.12 430.58,432.84"/>
    </edge>
    <edge id=":17603_0" function="internal">
        <lane id=":17603_0_0" index="0" speed="10.77" length="10.63" shape="358.40,487.20 358.19,484.13 357.58,481.47 356.55,479.22 355.10,477.37"/>
    </edge>
    <edge id=":17603_1" function="internal">
        <lane id=":17603_1_0" index="0" speed="8.00" length="3.37" shape="358.40,487.20 358.88,483.87"/>
    </edge>
    <edge id=":17603_2" function="internal">
        <lane id=":17603_2_0" index="0" speed="3.65" length="1.44" shape="358.40,487.20 359.20,486.00"/>
    </edge>
    <edge id=":17603_9" function="internal">
        <lane id=":17603_9_0" index="0" speed="8.00" length="10.83" shape="358.88,483.87 358.95,483.35 360.60,480.60 363.35,478.95 367.20,478.40"/>
    </edge>
    <edge id=":17603_10" function="internal">
        <lane id=":17603_10_0" index="0" speed="3.65" length="3.23" shape="359.20,486.00 360.00,485.60 360.80,486.00 361.60,487.20"/>
    </edge>
    <edge id=":17603_3" function="internal">
        <lane id=":17603_3_0" index="0" speed="6.51" length="9.03" shape="367.20,481.60 364.75,481.95 363.00,483.00 361.95,484.75 361.60,487.20"/>
    </edge>
    <edge id=":17603_4" function="internal">
        <lane id=":17603_4_0" index="0" speed="11.94" length="13.14" shape="367.20,481.60 363.50,481.34 360.24,480.54 357.45,479.22 355.10,477.37"/>
    </edge>
    <edge id=":17603_5" function="internal">
        <lane id=":17603_5_0" index="0" speed="3.65" length="4.67" shape="367.20,481.60 366.00,480.80 365.60,480.00 366.00,479.20 367.20,478.40"/>
    </edge>
    <edge id=":17603_6" function="internal">
        <lane id=":17603_6_0" index="0" speed="10.77" length="10.63" shape="357.37,475.10 359.22,476.55 361.47,477.58 364.13,478.19 367.20,478.40"/>
    </edge>
    <edge id=":17603_7" function="internal">
        <lane id=":17603_7_0" index="0" speed="11.94" length="13.14" shape="357.37,475.10 359.22,477.45 360.54,480.24 361.34,483.50 361.60,487.20"/>
    </edge>
    <edge id=":17603_8" function="internal">
        <lane id=":17603_8_0" index="0" speed="3.65" length="1.44" shape="357.37,475.10 357.65,476.52"/>
    </edge>
    <edge id=":17603_11" function="internal">
        <lane id=":17603_11_0" index="0" speed="3.65" length="3.23" shape="357.65,476.52 357.37,477.37 356.52,477.65 355.10,477.37"/>
    </edge>
    <edge id=":19168_0" function="internal">
        <lane id=":19168_0_0" index="0" speed="10.16" length="12.94" shape="384.20,649.19 381.69,645.87 379.19,643.50 376.73,642.07 374.29,641.60"/>
    </edge>
    <edge id=":19168_1" function="internal">
        <lane id=":19168_1_0" index="0" speed="7.38" length="17.29" shape="384.20,649.19 381.87,644.47 382.05,641.10 384.75,639.07 389.98,638.40"/>
    </edge>
    <edge id=":19168_2" function="internal">
        <lane id=":19168_2_0" index="0" speed="3.65" length="4.67" shape="384.20,649.19 384.20,647.75 384.65,646.97 385.54,646.86 386.87,647.42"/>
    </edge>
    <edge id=":19168_3" function="internal">
        <lane id=":19168_3_0" index="0" speed="5.61" length="9.32" shape="389.98,641.60 387.16,641.96 385.71,643.05 385.61,644.87 386.87,647.42"/>
    </edge>
    <edge id=":19168_4" function="internal">
        <lane id=":19168_4_0" index="0" speed="13.89" length="15.69" shape="389.98,641.60 374.29,641.60"/>
    </edge>
    <edge id=":19168_5" function="internal">
        <lane id=":19168_5_0" index="0" speed="3.65" length="1.44" shape="389.98,641.60 388.78,640.80"/>
    </edge>
    <edge id=":19168_9" function="internal">
        <lane id=":19168_9_0" index="0" speed="3.65" length="3.23" shape="388.78,640.80 388.38,640.00 388.78,639.20 389.98,638.40"/>
    </edge>
    <edge id=":19168_6" function="internal">
        <lane id=":19168_6_0" index="0" speed="13.89" length="15.69" shape="374.29,638.40 389.98,638.40"/>
    </edge>
    <edge id=":19168_7" function="internal">
        <lane id=":19168_7_0" index="0" speed="11.27" length="3.53" shape="374.29,638.40 377.54,638.96 377.74,639.07"/>
    </edge>
    <edge id=":19168_8" function="internal">
        <lane id=":19168_8_0" index="0" speed="3.65" length="1.44" shape="374.29,638.40 375.49,639.20"/>
    </edge>
    <edge id=":19168_10" function="internal">
        <lane id=":19168_10_0" index="0" speed="11.27" length="12.55" shape="377.74,639.07 380.72,640.65 383.83,643.47 386.87,647.42"/>
    </edge>
    <edge id=":19168_11" function="internal">
        <lane id=":19168_11_0" index="0" speed="3.65" length="3.23" shape="375.49,639.20 375.89,640.00 375.49,640.80 374.29,641.60"/>
    </edge>
    <edge id=":22111_0" function="internal">
        <lane id=":22111_0_0" index="0" speed="3.65" length="4.67" shape="500.00,618.40 501.20,619.20 501.60,620.00 501.20,620.80 500.00,621.60"/>
    </edge>
    <edge id=":23108_0" function="internal">
        <lane id=":23108_0_0" index="0" speed="6.49" length="14.35" shape="495.67,593.41 498.53,596.99 498.92,599.55 496.83,601.09 492.27,601.60"/>
    </edge>
    <edge id=":23108_1" function="internal">
        <lane id=":23108_1_0" index="0" speed="3.65" length="1.44" shape="495.67,593.41 495.95,594.82"/>
    </edge>
    <edge id=":23108_4" function="internal">
        <lane id=":23108_4_0" index="0" speed="3.65" length="3.23" shape="495.95,594.82 495.67,595.67 494.82,595.95 493.41,595.67"/>
    </edge>
    <edge id=":23108_2" function="internal">
        <lane id=":23108_2_0" index="0" speed="4.12" length="4.78" shape="492.27,598.40 493.79,598.23 494.49,597.72 494.36,596.86 493.41,595.67"/>
    </edge>
    <edge id=":23108_3" function="internal">
        <lane id=":23108_3_0" index="0" speed="3.65" length="1.33" shape="492.27,598.40 493.38,599.14"/>
    </edge>
    <edge id=":23108_5" function="internal">
        <lane id=":23108_5_0" index="0" speed="3.65" length="3.35" shape="493.38,599.14 493.47,599.20 493.87,600.00 493.47,600.80 492.27,601.60"/>
    </edge>
    <edge id=":23138_0" function="internal">
        <lane id=":23138_0_0" index="0" speed="9.73" length="21.49" shape="471.73,621.60 465.90,620.77 461.73,618.27 459.23,614.10 458.40,608.27"/>
    </edge>
    <edge id=":23138_1" function="internal">
        <lane id=":23138_1_0" index="0" speed="7.42" length="9.49" shape="471.73,621.60 465.59,620.91 462.92,618.94"/>
    </edge>
    <edge id=":23138_2" function="internal">
        <lane id=":23138_2_0" index="0" speed="3.65" length="1.44" shape="471.73,621.60 470.53,620.80"/>
    </edge>
    <edge id=":23138_9" function="internal">
        <lane id=":23138_9_0" index="0" speed="7.42" length="9.82" shape="462.92,618.94 462.79,618.84 463.31,615.40 467.16,610.58"/>
    </edge>
    <edge id=":23138_10" function="internal">
        <lane id=":23138_10_0" index="0" speed="3.65" length="3.23" shape="470.53,620.80 470.13,620.00 470.53,619.20 471.73,618.40"/>
    </edge>
    <edge id=":23138_3" function="internal">
        <lane id=":23138_3_0" index="0" speed="5.47" length="9.74" shape="469.42,612.84 467.48,615.27 467.22,617.01 468.63,618.05 471.73,618.40"/>
    </edge>
    <edge id=":23138_4" function="internal">
        <lane id=":23138_4_0" index="0" speed="7.42" length="19.31" shape="469.42,612.84 464.60,616.69 461.16,617.21 459.09,614.41 458.40,608.27"/>
    </edge>
    <edge id=":23138_5" function="internal">
        <lane id=":23138_5_0" index="0" speed="3.65" length="4.67" shape="469.42,612.84 468.01,613.12 467.16,612.84 466.88,611.99 467.16,610.58"/>
    </edge>
    <edge id=":23138_6" function="internal">
        <lane id=":23138_6_0" index="0" speed="5.47" length="9.74" shape="461.60,608.27 461.95,611.37 462.99,612.78 464.73,612.52 467.16,610.58"/>
    </edge>
    <edge id=":23138_7" function="internal">
        <lane id=":23138_7_0" index="0" speed="8.54" length="16.33" shape="461.60,608.27 462.23,612.70 464.13,615.87 467.30,617.77 471.73,618.40"/>
    </edge>
    <edge id=":23138_8" function="internal">
        <lane id=":23138_8_0" index="0" speed="3.65" length="1.30" shape="461.60,608.27 460.88,609.36"/>
    </edge>
    <edge id=":23138_11" function="internal">
        <lane id=":23138_11_0" index="0" speed="3.65" length="3.37" shape="460.88,609.36 460.80,609.47 460.00,609.87 459.20,609.47 458.40,608.27"/>
    </edge>
    <edge id=":24218_0" function="internal">
        <lane id=":24218_0_0" index="0" speed="13.89" length="14.40" shape="458.40,607.20 458.40,592.80"/>
    </edge>
    <edge id=":24218_1" function="internal">
        <lane id=":24218_1_0" index="0" speed="8.00" length="4.07" shape="458.40,607.20 458.95,603.35 459.04,603.20"/>
    </edge>
    <edge id=":24218_2" function="internal">
        <lane id=":24218_2_0" index="0" speed="3.65" length="1.44" shape="458.40,607.20 459.20,606.00"/>
    </edge>
    <edge id=":24218_9" function="internal">