<?xml version="1.0" encoding="UTF-8"?>

<!-- generated on 2023-12-21 08:52:12 by Eclipse SUMO netgenerate Version 1.19.0
<configuration xmlns:xsi="http://www.w3.org/2001/XMLSchema-instance" xsi:noNamespaceSchemaLocation="http://sumo.dlr.de/xsd/netgenerateConfiguration.xsd">

    <random_network>
        <rand value="true"/>
        <rand.iterations value="100"/>
        <rand.max-distance value="100"/>
        <rand.min-distance value="20"/>
        <rand.grid value="true"/>
    </random_network>

    <output>
        <human-readable-time value="true"/>
        <alphanumerical-ids value="true"/>
        <output-file value="smallK3.net.xml"/>
    </output>

</configuration>
-->

<net version="1.16" junctionCornerDetail="5" limitTurnSpeed="5.50" xmlns:xsi="http://www.w3.org/2001/XMLSchema-instance" xsi:noNamespaceSchemaLocation="http://sumo.dlr.de/xsd/net_file.xsd">

    <location netOffset="720.00,380.00" convBoundary="0.00,0.00,980.00,700.00" origBoundary="-720.00,-380.00,260.00,320.00" projParameter="!"/>

    <edge id=":1_0" function="internal">
        <lane id=":1_0_0" index="0" speed="6.51" length="9.03" shape="718.40,387.20 718.05,384.75 717.00,383.00 715.25,381.95 712.80,381.60"/>
    </edge>
    <edge id=":1_1" function="internal">
        <lane id=":1_1_0" index="0" speed="13.89" length="14.40" shape="718.40,387.20 718.40,372.80"/>
    </edge>
    <edge id=":1_2" function="internal">
        <lane id=":1_2_0" index="0" speed="8.00" length="4.07" shape="718.40,387.20 718.95,383.35 719.04,383.20"/>
    </edge>
    <edge id=":1_3" function="internal">
        <lane id=":1_3_0" index="0" speed="3.65" length="1.44" shape="718.40,387.20 719.20,386.00"/>
    </edge>
    <edge id=":1_16" function="internal">
        <lane id=":1_16_0" index="0" speed="8.00" length="10.13" shape="719.04,383.20 720.60,380.60 723.35,378.95 727.20,378.40"/>
    </edge>
    <edge id=":1_17" function="internal">
        <lane id=":1_17_0" index="0" speed="3.65" length="3.23" shape="719.20,386.00 720.00,385.60 720.80,386.00 721.60,387.20"/>
    </edge>
    <edge id=":1_4" function="internal">
        <lane id=":1_4_0" index="0" speed="6.51" length="9.03" shape="727.20,381.60 724.75,381.95 723.00,383.00 721.95,384.75 721.60,387.20"/>
    </edge>
    <edge id=":1_5" function="internal">
        <lane id=":1_5_0" index="0" speed="13.89" length="14.40" shape="727.20,381.60 712.80,381.60"/>
    </edge>
    <edge id=":1_6" function="internal">
        <lane id=":1_6_0" index="0" speed="8.00" length="14.19" shape="727.20,381.60 723.35,381.05 720.60,379.40 718.95,376.65 718.40,372.80"/>
    </edge>
    <edge id=":1_7" function="internal">
        <lane id=":1_7_0" index="0" speed="3.65" length="4.67" shape="727.20,381.60 726.00,380.80 725.60,380.00 726.00,379.20 727.20,378.40"/>
    </edge>
    <edge id=":1_8" function="internal">
        <lane id=":1_8_0" index="0" speed="6.51" length="9.03" shape="721.60,372.80 721.95,375.25 723.00,377.00 724.75,378.05 727.20,378.40"/>
    </edge>
    <edge id=":1_9" function="internal">
        <lane id=":1_9_0" index="0" speed="13.89" length="14.40" shape="721.60,372.80 721.60,387.20"/>
    </edge>
    <edge id=":1_10" function="internal">
        <lane id=":1_10_0" index="0" speed="8.00" length="4.07" shape="721.60,372.80 721.05,376.65 720.96,376.80"/>
    </edge>
    <edge id=":1_11" function="internal">
        <lane id=":1_11_0" index="0" speed="3.65" length="1.44" shape="721.60,372.80 720.80,374.00"/>
    </edge>
    <edge id=":1_18" function="internal">
        <lane id=":1_18_0" index="0" speed="8.00" length="10.13" shape="720.96,376.80 719.40,379.40 716.65,381.05 712.80,381.60"/>
    </edge>
    <edge id=":1_19" function="internal">
        <lane id=":1_19_0" index="0" speed="3.65" length="3.23" shape="720.80,374.00 720.00,374.40 719.20,374.00 718.40,372.80"/>
    </edge>
    <edge id=":1_12" function="internal">
        <lane id=":1_12_0" index="0" speed="6.51" length="9.03" shape="712.80,378.40 715.25,378.05 717.00,377.00 718.05,375.25 718.40,372.80"/>
    </edge>
    <edge id=":1_13" function="internal">
        <lane id=":1_13_0" index="0" speed="13.89" length="14.40" shape="712.80,378.40 727.20,378.40"/>
    </edge>
    <edge id=":1_14" function="internal">
        <lane id=":1_14_0" index="0" speed="8.00" length="14.19" shape="712.80,378.40 716.65,378.95 719.40,380.60 721.05,383.35 721.60,387.20"/>
    </edge>
    <edge id=":1_15" function="internal">
        <lane id=":1_15_0" index="0" speed="3.65" length="4.67" shape="712.80,378.40 714.00,379.20 714.40,380.00 714.00,380.80 712.80,381.60"/>
    </edge>
    <edge id=":10_0" function="internal">
        <lane id=":10_0_0" index="0" speed="6.51" length="9.03" shape="698.40,387.20 698.05,384.75 697.00,383.00 695.25,381.95 692.80,381.60"/>
    </edge>
    <edge id=":10_1" function="internal">
        <lane id=":10_1_0" index="0" speed="13.89" length="14.40" shape="698.40,387.20 698.40,372.80"/>
    </edge>
    <edge id=":10_2" function="internal">
        <lane id=":10_2_0" index="0" speed="8.00" length="4.07" shape="698.40,387.20 698.95,383.35 699.04,383.20"/>
    </edge>
    <edge id=":10_3" function="internal">
        <lane id=":10_3_0" index="0" speed="3.65" length="1.44" shape="698.40,387.20 699.20,386.00"/>
    </edge>
    <edge id=":10_16" function="internal">
        <lane id=":10_16_0" index="0" speed="8.00" length="10.13" shape="699.04,383.20 700.60,380.60 703.35,378.95 707.20,378.40"/>
    </edge>
    <edge id=":10_17" function="internal">
        <lane id=":10_17_0" index="0" speed="3.65" length="3.23" shape="699.20,386.00 700.00,385.60 700.80,386.00 701.60,387.20"/>
    </edge>
    <edge id=":10_4" function="internal">
        <lane id=":10_4_0" index="0" speed="6.51" length="9.03" shape="707.20,381.60 704.75,381.95 703.00,383.00 701.95,384.75 701.60,387.20"/>
    </edge>
    <edge id=":10_5" function="internal">
        <lane id=":10_5_0" index="0" speed="13.89" length="14.40" shape="707.20,381.60 692.80,381.60"/>
    </edge>
    <edge id=":10_6" function="internal">
        <lane id=":10_6_0" index="0" speed="8.00" length="14.19" shape="707.20,381.60 703.35,381.05 700.60,379.40 698.95,376.65 698.40,372.80"/>
    </edge>
    <edge id=":10_7" function="internal">
        <lane id=":10_7_0" index="0" speed="3.65" length="4.67" shape="707.20,381.60 706.00,380.80 705.60,380.00 706.00,379.20 707.20,378.40"/>
    </edge>
    <edge id=":10_8" function="internal">
        <lane id=":10_8_0" index="0" speed="6.51" length="9.03" shape="701.60,372.80 701.95,375.25 703.00,377.00 704.75,378.05 707.20,378.40"/>
    </edge>
    <edge id=":10_9" function="internal">
        <lane id=":10_9_0" index="0" speed="13.89" length="14.40" shape="701.60,372.80 701.60,387.20"/>
    </edge>
    <edge id=":10_10" function="internal">
        <lane id=":10_10_0" index="0" speed="8.00" length="4.07" shape="701.60,372.80 701.05,376.65 700.96,376.80"/>
    </edge>
    <edge id=":10_11" function="internal">
        <lane id=":10_11_0" index="0" speed="3.65" length="1.44" shape="701.60,372.80 700.80,374.00"/>
    </edge>
    <edge id=":10_18" function="internal">
        <lane id=":10_18_0" index="0" speed="8.00" length="10.13" shape="700.96,376.80 699.40,379.40 696.65,381.05 692.80,381.60"/>
    </edge>
    <edge id=":10_19" function="internal">
        <lane id=":10_19_0" index="0" speed="3.65" length="3.23" shape="700.80,374.00 700.00,374.40 699.20,374.00 698.40,372.80"/>
    </edge>
    <edge id=":10_12" function="internal">
        <lane id=":10_12_0" index="0" speed="6.51" length="9.03" shape="692.80,378.40 695.25,378.05 697.00,377.00 698.05,375.25 698.40,372.80"/>
    </edge>
    <edge id=":10_13" function="internal">
        <lane id=":10_13_0" index="0" speed="13.89" length="14.40" shape="692.80,378.40 707.20,378.40"/>
    </edge>
    <edge id=":10_14" function="internal">
        <lane id=":10_14_0" index="0" speed="8.00" length="14.19" shape="692.80,378.40 696.65,378.95 699.40,380.60 701.05,383.35 701.60,387.20"/>
    </edge>
    <edge id=":10_15" function="internal">
        <lane id=":10_15_0" index="0" speed="3.65" length="4.67" shape="692.80,378.40 694.00,379.20 694.40,380.00 694.00,380.80 692.80,381.60"/>
    </edge>
    <edge id=":100_0" function="internal">
        <lane id=":100_0_0" index="0" speed="6.51" length="9.03" shape="838.40,167.20 838.05,164.75 837.00,163.00 835.25,161.95 832.80,161.60"/>
    </edge>
    <edge id=":100_1" function="internal">
        <lane id=":100_1_0" index="0" speed="11.94" length="13.14" shape="838.40,167.20 838.66,163.50 839.46,160.24 840.78,157.45 842.63,155.10"/>
    </edge>
    <edge id=":100_2" function="internal">
        <lane id=":100_2_0" index="0" speed="3.65" length="1.44" shape="838.40,167.20 839.20,166.00"/>
    </edge>
    <edge id=":100_9" function="internal">
        <lane id=":100_9_0" index="0" speed="3.65" length="3.23" shape="839.20,166.00 840.00,165.60 840.80,166.00 841.60,167.20"/>
    </edge>
    <edge id=":100_3" function="internal">
        <lane id=":100_3_0" index="0" speed="10.77" length="10.63" shape="844.90,157.37 843.45,159.22 842.42,161.47 841.81,164.13 841.60,167.20"/>
    </edge>
    <edge id=":100_4" function="internal">
        <lane id=":100_4_0" index="0" speed="11.96" length="2.92" shape="844.90,157.37 842.62,159.20"/>
    </edge>
    <edge id=":100_5" function="internal">
        <lane id=":100_5_0" index="0" speed="3.65" length="1.32" shape="844.90,157.37 843.60,157.63"/>
    </edge>
    <edge id=":100_10" function="internal">
        <lane id=":100_10_0" index="0" speed="11.96" length="10.28" shape="842.62,159.20 842.22,159.52 839.40,160.81 836.30,161.44 832.80,161.60"/>
    </edge>
    <edge id=":100_11" function="internal">
        <lane id=":100_11_0" index="0" speed="3.65" length="3.35" shape="843.60,157.63 843.48,157.65 842.63,157.37 842.35,156.52 842.63,155.10"/>
    </edge>
    <edge id=":100_6" function="internal">
        <lane id=":100_6_0" index="0" speed="10.77" length="10.63" shape="832.80,158.40 835.87,158.19 838.53,157.58 840.78,156.55 842.63,155.10"/>
    </edge>
    <edge id=":100_7" function="internal">
        <lane id=":100_7_0" index="0" speed="8.00" length="14.19" shape="832.80,158.40 836.65,158.95 839.40,160.60 841.05,163.35 841.60,167.20"/>
    </edge>
    <edge id=":100_8" function="internal">
        <lane id=":100_8_0" index="0" speed="3.65" length="4.67" shape="832.80,158.40 834.00,159.20 834.40,160.00 834.00,160.80 832.80,161.60"/>
    </edge>
    <edge id=":1020_0" function="internal">
        <lane id=":1020_0_0" index="0" speed="5.61" length="9.32" shape="698.40,429.98 698.04,427.16 696.95,425.71 695.13,425.61 692.58,426.87"/>
    </edge>
    <edge id=":1020_1" function="internal">
        <lane id=":1020_1_0" index="0" speed="13.89" length="15.69" shape="698.40,429.98 698.40,414.29"/>
    </edge>
    <edge id=":1020_2" function="internal">
        <lane id=":1020_2_0" index="0" speed="3.65" length="1.44" shape="698.40,429.98 699.20,428.78"/>
    </edge>
    <edge id=":1020_9" function="internal">
        <lane id=":1020_9_0" index="0" speed="3.65" length="3.23" shape="699.20,428.78 700.00,428.38 700.80,428.78 701.60,429.98"/>
    </edge>
    <edge id=":1020_3" function="internal">
        <lane id=":1020_3_0" index="0" speed="13.89" length="15.69" shape="701.60,414.29 701.60,429.98"/>
    </edge>
    <edge id=":1020_4" function="internal">
        <lane id=":1020_4_0" index="0" speed="11.27" length="3.53" shape="701.60,414.29 701.04,417.54 700.93,417.74"/>
    </edge>
    <edge id=":1020_5" function="internal">
        <lane id=":1020_5_0" index="0" speed="3.65" length="1.44" shape="701.60,414.29 700.80,415.49"/>
    </edge>
    <edge id=":1020_10" function="internal">
        <lane id=":1020_10_0" index="0" speed="11.27" length="12.55" shape="700.93,417.74 699.35,420.72 696.53,423.83 692.58,426.87"/>
    </edge>
    <edge id=":1020_11" function="internal">
        <lane id=":1020_11_0" index="0" speed="3.65" length="3.23" shape="700.80,415.49 700.00,415.89 699.20,415.49 698.40,414.29"/>
    </edge>
    <edge id=":1020_6" function="internal">
        <lane id=":1020_6_0" index="0" speed="10.16" length="12.94" shape="690.81,424.20 694.13,421.69 696.50,419.19 697.93,416.73 698.40,414.29"/>
    </edge>
    <edge id=":1020_7" function="internal">
        <lane id=":1020_7_0" index="0" speed="7.38" length="17.29" shape="690.81,424.20 695.53,421.87 698.90,422.05 700.93,424.75 701.60,429.98"/>
    </edge>
    <edge id=":1020_8" function="internal">
        <lane id=":1020_8_0" index="0" speed="3.65" length="4.67" shape="690.81,424.20 692.25,424.20 693.03,424.65 693.14,425.54 692.58,426.87"/>
    </edge>
    <edge id=":1032_0" function="internal">
        <lane id=":1032_0_0" index="0" speed="13.89" length="18.42" shape="638.40,529.98 638.40,511.56"/>
    </edge>
    <edge id=":1032_1" function="internal">
        <lane id=":1032_1_0" index="0" speed="10.75" length="5.15" shape="638.40,529.98 639.09,524.88"/>
    </edge>
    <edge id=":1032_2" function="internal">
        <lane id=":1032_2_0" index="0" speed="7.46" length="5.06" shape="638.40,529.98 639.08,524.96"/>
    </edge>
    <edge id=":1032_3" function="internal">
        <lane id=":1032_3_0" index="0" speed="3.65" length="1.44" shape="638.40,529.98 639.20,528.78"/>
    </edge>
    <edge id=":1032_16" function="internal">
        <lane id=":1032_16_0" index="0" speed="10.75" length="14.79" shape="639.09,524.88 641.17,520.71 644.64,517.46 649.50,515.15"/>
    </edge>
    <edge id=":1032_17" function="internal">
        <lane id=":1032_17_0" index="0" speed="7.46" length="12.60" shape="639.08,524.96 639.10,524.77 641.21,522.13 644.73,522.04 649.66,524.52"/>
    </edge>
    <edge id=":1032_18" function="internal">
        <lane id=":1032_18_0" index="0" speed="3.65" length="3.23" shape="639.20,528.78 640.00,528.38 640.80,528.78 641.60,529.98"/>
    </edge>
    <edge id=":1032_4" function="internal">
        <lane id=":1032_4_0" index="0" speed="5.70" length="9.70" shape="647.88,527.18 645.14,525.78 643.17,525.78 641.99,527.18 641.60,529.98"/>
    </edge>
    <edge id=":1032_5" function="internal">
        <lane id=":1032_5_0" index="0" speed="12.24" length="19.05" shape="647.88,527.18 643.74,523.83 640.77,520.11 638.99,516.02 638.40,511.56"/>
    </edge>
    <edge id=":1032_6" function="internal">
        <lane id=":1032_6_0" index="0" speed="7.38" length="17.93" shape="647.88,527.18 643.68,523.55 642.54,520.34 644.48,517.54 649.50,515.15"/>
    </edge>
    <edge id=":1032_7" function="internal">
        <lane id=":1032_7_0" index="0" speed="3.65" length="4.67" shape="647.88,527.18 647.33,525.85 647.44,524.96 648.22,524.52 649.66,524.52"/>
    </edge>
    <edge id=":1032_8" function="internal">
        <lane id=":1032_8_0" index="0" speed="5.54" length="9.44" shape="650.51,518.18 647.87,519.44 646.85,520.92 647.44,522.61 649.66,524.52"/>
    </edge>
    <edge id=":1032_9" function="internal">
        <lane id=":1032_9_0" index="0" speed="9.65" length="15.91" shape="650.51,518.18 646.61,520.03 643.83,522.62 642.16,525.93 641.60,529.98"/>
    </edge>
    <edge id=":1032_10" function="internal">
        <lane id=":1032_10_0" index="0" speed="7.89" length="17.17" shape="650.51,518.18 645.21,519.28 641.43,518.55 639.16,515.97 638.40,511.56"/>
    </edge>
    <edge id=":1032_11" function="internal">
        <lane id=":1032_11_0" index="0" speed="3.65" length="4.67" shape="650.51,518.18 649.12,517.80 648.48,517.17 648.61,516.29 649.50,515.15"/>
    </edge>
    <edge id=":1032_12" function="internal">
        <lane id=":1032_12_0" index="0" speed="6.36" length="10.71" shape="641.60,511.56 642.09,514.12 643.57,515.57 646.04,515.91 649.50,515.15"/>
    </edge>
    <edge id=":1032_13" function="internal">
        <lane id=":1032_13_0" index="0" speed="11.21" length="15.90" shape="641.60,511.56 642.10,515.21 643.61,518.59 646.13,521.69 649.66,524.52"/>
    </edge>
    <edge id=":1032_14" function="internal">
        <lane id=":1032_14_0" index="0" speed="13.89" length="18.42" shape="641.60,511.56 641.60,529.98"/>
    </edge>
    <edge id=":1032_15" function="internal">
        <lane id=":1032_15_0" index="0" speed="3.65" length="1.44" shape="641.60,511.56 640.80,512.76"/>
    </edge>
    <edge id=":1032_19" function="internal">
        <lane id=":1032_19_0" index="0" speed="3.65" length="3.23" shape="640.80,512.76 640.00,513.16 639.20,512.76 638.40,511.56"/>
    </edge>
    <edge id=":1048_0" function="internal">
        <lane id=":1048_0_0" index="0" speed="6.61" length="11.66" shape="698.40,511.73 698.03,507.69 696.92,505.09 695.08,503.92 692.50,504.19"/>
    </edge>
    <edge id=":1048_1" function="internal">
        <lane id=":1048_1_0" index="0" speed="13.89" length="18.03" shape="698.40,511.73 698.40,493.69"/>
    </edge>
    <edge id=":1048_2" function="internal">
        <lane id=":1048_2_0" index="0" speed="7.42" length="6.00" shape="698.40,511.73 699.07,505.76"/>
    </edge>
    <edge id=":1048_3" function="internal">
        <lane id=":1048_3_0" index="0" speed="3.65" length="1.44" shape="698.40,511.73 699.20,510.53"/>
    </edge>
    <edge id=":1048_16" function="internal">
        <lane id=":1048_16_0" index="0" speed="7.42" length="13.30" shape="699.07,505.76 699.09,505.59 701.16,502.79 704.60,503.31 709.42,507.16"/>
    </edge>
    <edge id=":1048_17" function="internal">
        <lane id=":1048_17_0" index="0" speed="3.65" length="3.23" shape="699.20,510.53 700.00,510.13 700.80,510.53 701.60,511.73"/>
    </edge>
    <edge id=":1048_4" function="internal">
        <lane id=":1048_4_0" index="0" speed="5.47" length="9.74" shape="707.16,509.42 704.73,507.48 702.99,507.22 701.95,508.63 701.60,511.73"/>
    </edge>
    <edge id=":1048_5" function="internal">
        <lane id=":1048_5_0" index="0" speed="10.54" length="16.40" shape="707.16,509.42 703.40,506.25 699.70,504.32 696.07,503.63 692.50,504.19"/>
    </edge>
    <edge id=":1048_6" function="internal">
        <lane id=":1048_6_0" index="0" speed="13.89" length="18.42" shape="707.16,509.42 703.33,505.15 700.59,501.11 698.95,497.29 698.40,493.69"/>
    </edge>
    <edge id=":1048_7" function="internal">
        <lane id=":1048_7_0" index="0" speed="3.65" length="4.67" shape="707.16,509.42 706.88,508.01 707.16,507.16 708.01,506.88 709.42,507.16"/>
    </edge>
    <edge id=":1048_8" function="internal">
        <lane id=":1048_8_0" index="0" speed="13.10" length="15.91" shape="701.60,493.69 702.09,496.65 703.56,499.88 706.00,503.38 709.42,507.16"/>
    </edge>
    <edge id=":1048_9" function="internal">
        <lane id=":1048_9_0" index="0" speed="13.89" length="18.03" shape="701.60,493.69 701.60,511.73"/>
    </edge>
    <edge id=":1048_10" function="internal">
        <lane id=":1048_10_0" index="0" speed="9.35" length="3.67" shape="701.60,493.69 701.03,497.15 700.95,497.29"/>
    </edge>
    <edge id=":1048_11" function="internal">
        <lane id=":1048_11_0" index="0" speed="3.65" length="1.44" shape="701.60,493.69 700.80,494.89"/>
    </edge>
    <edge id=":1048_18" function="internal">
        <lane id=":1048_18_0" index="0" speed="9.35" length="11.25" shape="700.95,497.29 699.32,500.05 696.48,502.39 692.50,504.19"/>
    </edge>
    <edge id=":1048_19" function="internal">
        <lane id=":1048_19_0" index="0" speed="3.65" length="3.23" shape="700.80,494.89 700.00,495.29 699.20,494.89 698.40,493.69"/>
    </edge>
    <edge id=":1048_12" function="internal">
        <lane id=":1048_12_0" index="0" speed="8.07" length="10.90" shape="691.49,501.15 694.51,499.82 696.67,498.13 697.97,496.09 698.40,493.69"/>
    </edge>
    <edge id=":1048_13" function="internal">
        <lane id=":1048_13_0" index="0" speed="11.58" length="19.95" shape="691.49,501.15 695.96,500.41 700.44,501.16 704.93,503.41 709.42,507.16"/>
    </edge>
    <edge id=":1048_14" function="internal">
        <lane id=":1048_14_0" index="0" speed="8.09" length="18.09" shape="691.49,501.15 695.91,500.55 699.07,502.11 700.97,505.84 701.60,511.73"/>
    </edge>
    <edge id=":1048_15" function="internal">
        <lane id=":1048_15_0" index="0" speed="3.65" length="4.67" shape="691.49,501.15 692.88,501.53 693.51,502.16 693.38,503.05 692.50,504.19"/>
    </edge>
    <edge id=":1060_0" function="internal">
        <lane id=":1060_0_0" index="0" speed="13.89" length="14.40" shape="358.40,227.20 358.40,212.80"/>
    </edge>
    <edge id=":1060_1" function="internal">
        <lane id=":1060_1_0" index="0" speed="8.00" length="4.07" shape="358.40,227.20 358.95,223.35 359.04,223.20"/>
    </edge>
    <edge id=":1060_2" function="internal">
        <lane id=":1060_2_0" index="0" speed="3.65" length="1.44" shape="358.40,227.20 359.20,226.00"/>
    </edge>
    <edge id=":1060_9" function="internal">
        <lane id=":1060_9_0" index="0" speed="8.00" length="10.13" shape="359.04,223.20 360.60,220.60 363.35,218.95 367.20,218.40"/>
    </edge>
    <edge id=":1060_10" function="internal">
        <lane id=":1060_10_0" index="0" speed="3.65" length="3.23" shape="359.20,226.00 360.00,225.60 360.80,226.00 361.60,227.20"/>
    </edge>
    <edge id=":1060_3" function="internal">
        <lane id=":1060_3_0" index="0" speed="6.51" length="9.03" shape="367.20,221.60 364.75,221.95 363.00,223.00 361.95,224.75 361.60,227.20"/>
    </edge>
    <edge id=":1060_4" function="internal">
        <lane id=":1060_4_0" index="0" speed="8.00" length="14.19" shape="367.20,221.60 363.35,221.05 360.60,219.40 358.95,216.65 358.40,212.80"/>
    </edge>
    <edge id=":1060_5" function="internal">
        <lane id=":1060_5_0" index="0" speed="3.65" length="4.67" shape="367.20,221.60 366.00,220.80 365.60,220.00 366.00,219.20 367.20,218.40"/>
    </edge>
    <edge id=":1060_6" function="internal">
        <lane id=":1060_6_0" index="0" speed="6.51" length="9.03" shape="361.60,212.80 361.95,215.25 363.00,217.00 364.75,218.05 367.20,218.40"/>
    </edge>
    <edge id=":1060_7" function="internal">
        <lane id=":1060_7_0" index="0" speed="13.89" length="14.40" shape="361.60,212.80 361.60,227.20"/>
    </edge>
    <edge id=":1060_8" function="internal">
        <lane id=":1060_8_0" index="0" speed="3.65" length="1.44" shape="361.60,212.80 360.80,214.00"/>
    </edge>
    <edge id=":1060_11" function="internal">
        <lane id=":1060_11_0" index="0" speed="3.65" length="3.23" shape="360.80,214.00 360.00,214.40 359.20,214.00 358.40,212.80"/>
    </edge>
    <edge id=":1081_0" function="internal">
        <lane id=":1081_0_0" index="0" speed="10.16" length="12.94" shape="698.40,565.71 697.93,563.27 696.50,560.81 694.13,558.31 690.81,555.80"/>
    </edge>
    <edge id=":1081_1" function="internal">
        <lane id=":1081_1_0" index="0" speed="13.89" length="17.44" shape="698.40,565.71 698.40,548.27"/>
    </edge>
    <edge id=":1081_2" function="internal">
        <lane id=":1081_2_0" index="0" speed="13.84" length="3.37" shape="698.40,565.71 699.12,562.42"/>
    </edge>
    <edge id=":1081_3" function="internal">
        <lane id=":1081_3_0" index="0" speed="3.65" length="1.44" shape="698.40,565.71 699.20,564.51"/>
    </edge>
    <edge id=":1081_16" function="internal">
        <lane id=":1081_16_0" index="0" speed="13.84" length="14.44" shape="699.12,562.42 699.27,561.74 701.45,557.60 704.30,553.73 707.16,550.58"/>
    </edge>
    <edge id=":1081_17" function="internal">
        <lane id=":1081_17_0" index="0" speed="3.65" length="3.23" shape="699.20,564.51 700.00,564.11 700.80,564.51 701.60,565.71"/>
    </edge>
    <edge id=":1081_4" function="internal">
        <lane id=":1081_4_0" index="0" speed="12.88" length="15.37" shape="709.42,552.84 706.00,556.58 703.56,559.97 702.09,563.01 701.60,565.71"/>
    </edge>
    <edge id=":1081_5" function="internal">
        <lane id=":1081_5_0" index="0" speed="10.33" length="20.66" shape="709.42,552.84 704.80,556.48 700.16,558.19 695.50,557.96 690.81,555.80"/>
    </edge>
    <edge id=":1081_6" function="internal">
        <lane id=":1081_6_0" index="0" speed="7.42" length="19.31" shape="709.42,552.84 704.60,556.69 701.16,557.21 699.09,554.41 698.40,548.27"/>
    </edge>
    <edge id=":1081_7" function="internal">
        <lane id=":1081_7_0" index="0" speed="3.65" length="4.67" shape="709.42,552.84 708.01,553.12 707.16,552.84 706.88,551.99 707.16,550.58"/>
    </edge>
    <edge id=":1081_8" function="internal">
        <lane id=":1081_8_0" index="0" speed="5.47" length="9.74" shape="701.60,548.27 701.95,551.37 702.99,552.78 704.73,552.52 707.16,550.58"/>
    </edge>
    <edge id=":1081_9" function="internal">
        <lane id=":1081_9_0" index="0" speed="13.89" length="17.44" shape="701.60,548.27 701.60,565.71"/>
    </edge>
    <edge id=":1081_10" function="internal">
        <lane id=":1081_10_0" index="0" speed="7.62" length="5.92" shape="701.60,548.27 700.94,554.16"/>
    </edge>
    <edge id=":1081_11" function="internal">
        <lane id=":1081_11_0" index="0" speed="3.65" length="1.44" shape="701.60,548.27 700.80,549.47"/>
    </edge>
    <edge id=":1081_18" function="internal">
        <lane id=":1081_18_0" index="0" speed="7.62" length="12.56" shape="700.94,554.16 700.93,554.26 698.90,557.51 695.53,558.02 690.81,555.80"/>
    </edge>
    <edge id=":1081_19" function="internal">
        <lane id=":1081_19_0" index="0" speed="3.65" length="3.23" shape="700.80,549.47 700.00,549.87 699.20,549.47 698.40,548.27"/>
    </edge>
    <edge id=":1081_12" function="internal">
        <lane id=":1081_12_0" index="0" speed="5.91" length="10.54" shape="692.58,553.13 695.13,554.28 696.95,553.86 698.04,551.85 698.40,548.27"/>
    </edge>
    <edge id=":1081_13" function="internal">
        <lane id=":1081_13_0" index="0" speed="9.20" length="16.21" shape="692.58,553.13 696.20,554.78 699.83,554.90 703.49,553.50 707.16,550.58"/>
    </edge>
    <edge id=":1081_14" function="internal">
        <lane id=":1081_14_0" index="0" speed="11.27" length="16.08" shape="692.58,553.13 696.53,556.17 699.35,559.28 701.04,562.46 701.60,565.71"/>
    </edge>
    <edge id=":1081_15" function="internal">
        <lane id=":1081_15_0" index="0" speed="3.65" length="4.67" shape="692.58,553.13 693.14,554.46 693.03,555.35 692.25,555.80 690.81,555.80"/>
    </edge>
    <edge id=":1085_0" function="internal">
        <lane id=":1085_0_0" index="0" speed="5.47" length="9.74" shape="758.40,571.73 758.05,568.63 757.01,567.22 755.27,567.48 752.84,569.42"/>
    </edge>
    <edge id=":1085_1" function="internal">
        <lane id=":1085_1_0" index="0" speed="13.89" length="18.93" shape="758.40,571.73 758.40,552.80"/>
    </edge>
    <edge id=":1085_2" function="internal">
        <lane id=":1085_2_0" index="0" speed="8.71" length="6.18" shape="758.40,571.73 759.16,567.40 759.90,565.78"/>
    </edge>
    <edge id=":1085_3" function="internal">
        <lane id=":1085_3_0" index="0" speed="3.65" length="1.44" shape="758.40,571.73 759.20,570.53"/>
    </edge>
    <edge id=":1085_16" function="internal">
        <lane id=":1085_16_0" index="0" speed="8.71" length="10.84" shape="759.90,565.78 761.15,563.07 763.97,559.73 767.20,558.40"/>
    </edge>
    <edge id=":1085_17" function="internal">
        <lane id=":1085_17_0" index="0" speed="3.65" length="3.23" shape="759.20,570.53 760.00,570.13 760.80,570.53 761.60,571.73"/>
    </edge>
    <edge id=":1085_4" function="internal">
        <lane id=":1085_4_0" index="0" speed="7.65" length="12.89" shape="767.20,561.60 764.75,562.23 763.00,564.13 761.95,567.30 761.60,571.73"/>
    </edge>
    <edge id=":1085_5" function="internal">
        <lane id=":1085_5_0" index="0" speed="13.42" length="16.74" shape="767.20,561.60 763.85,562.09 760.34,563.56 756.67,566.00 752.84,569.42"/>
    </edge>
    <edge id=":1085_6" function="internal">
        <lane id=":1085_6_0" index="0" speed="8.00" length="14.19" shape="767.20,561.60 763.35,561.05 760.60,559.40 758.95,556.65 758.40,552.80"/>
    </edge>
    <edge id=":1085_7" function="internal">
        <lane id=":1085_7_0" index="0" speed="3.65" length="4.67" shape="767.20,561.60 766.00,560.80 765.60,560.00 766.00,559.20 767.20,558.40"/>
    </edge>
    <edge id=":1085_8" function="internal">
        <lane id=":1085_8_0" index="0" speed="6.51" length="9.03" shape="761.60,552.80 761.95,555.25 763.00,557.00 764.75,558.05 767.20,558.40"/>
    </edge>
    <edge id=":1085_9" function="internal">
        <lane id=":1085_9_0" index="0" speed="13.89" length="18.93" shape="761.60,552.80 761.60,571.73"/>
    </edge>
    <edge id=":1085_10" function="internal">
        <lane id=":1085_10_0" index="0" speed="13.89" length="4.39" shape="761.60,552.80 760.85,556.44 760.58,557.05"/>
    </edge>
    <edge id=":1085_11" function="internal">
        <lane id=":1085_11_0" index="0" speed="3.65" length="1.44" shape="761.60,552.80 760.80,554.00"/>
    </edge>
    <edge id=":1085_18" function="internal">
        <lane id=":1085_18_0" index="0" speed="13.89" length="14.68" shape="760.58,557.05 758.86,560.94 756.06,565.53 752.84,569.42"/>
    </edge>
    <edge id=":1085_19" function="internal">
        <lane id=":1085_19_0" index="0" speed="3.65" length="3.23" shape="760.80,554.00 760.00,554.40 759.20,554.00 758.40,552.80"/>
    </edge>
    <edge id=":1085_12" function="internal">
        <lane id=":1085_12_0" index="0" speed="13.42" length="16.74" shape="750.58,567.16 754.00,563.33 756.44,559.66 757.91,556.15 758.40,552.80"/>
    </edge>
    <edge id=":1085_13" function="internal">
        <lane id=":1085_13_0" index="0" speed="13.89" length="19.24" shape="750.58,567.16 754.90,563.33 759.11,560.59 763.21,558.95 767.20,558.40"/>
    </edge>
    <edge id=":1085_14" function="internal">
        <lane id=":1085_14_0" index="0" speed="7.42" length="19.31" shape="750.58,567.16 755.40,563.31 758.84,562.79 760.91,565.59 761.60,571.73"/>
    </edge>
    <edge id=":1085_15" function="internal">